@<TRIPOS>MOLECULE
calcium_oxygen
5 0 0 0 0
SMALL
USER_CHARGES

@<TRIPOS>ATOM
      1 Ca1        0.0000    0.0000    0.0000 Ca      1 CA1        2.0000
      2 O1         1.8000    0.0000    0.0000 O       1 O1        -0.5000
      3 O2        -1.8000    0.0000    0.0000 O       1 O2        -0.5000
      4 O3         0.0000    1.8000    0.0000 O       1 O3        -0.5000
      5 O4         0.0000   -1.8000    0.0000 O       1 O4        -0.5000

@<TRIPOS>BOND

