@<TRIPOS>MOLECULE
COMMENT  TcB parTocc2xyz Temp(K):    298.000
 303 0 0 0 0
SMALL
GASTEIGER

@<TRIPOS>ATOM
      1 CA          1.0468    0.7791   13.0807 Ca      1  UNL1        0.0000
      2 CA          2.3685    2.6815   29.5125 Ca      2  UNL2        0.0000
      3 CA          8.2173    4.5846   44.6671 Ca      3  UNL3        0.0000
      4 CA         17.6542    8.7661   57.9835 Ca      4  UNL4        0.0000
      5 CA         31.2835   12.2778   65.3080 Ca      5  UNL5        0.0000
      6 CA         46.7287   18.2060   65.5737 Ca      6  UNL6        0.0000
      7 CA         60.9825   22.1806   59.4778 Ca      7  UNL7        0.0000
      8 CA         71.5349   25.2948   47.3464 Ca      8  UNL8        0.0000
      9 CA         77.9684   26.0254   32.4728 Ca      9  UNL9        0.0000
     10 CA         79.8734   23.3274   16.2052 Ca     10  UNL10       0.0000
     11 CA         76.1799   18.0358    1.3289 Ca     11  UNL11       0.0000
     12 CA         67.6085    9.5297  -10.5182 Ca     12  UNL12       0.0000
     13 CA         54.6317    1.0500  -16.0562 Ca     13  UNL13       0.0000
     14 CA         40.0344   -7.5894  -15.5945 Ca     14  UNL14       0.0000
     15 CA         26.3079  -13.3549   -7.9504 Ca     15  UNL15       0.0000
     16 CA         15.3410  -18.7887    3.8548 Ca     16  UNL16       0.0000
     17 CA         10.2301  -20.7265   19.7683 Ca     17  UNL17       0.0000
     18 CA         10.6403  -21.7490   36.7858 Ca     18  UNL18       0.0000
     19 CA         18.3135  -19.6743   51.7641 Ca     19  UNL19       0.0000
     20 CA         30.4855  -15.4227   62.2430 Ca     20  UNL20       0.0000
     21 CA         45.6077   -9.8469   67.2978 Ca     21  UNL21       0.0000
     22 CA         60.7266   -3.9523   66.1938 Ca     22  UNL22       0.0000
     23 CA         75.0285    1.3364   59.6688 Ca     23  UNL23       0.0000
     24 CA         85.6045    4.2183   47.4029 Ca     24  UNL24       0.0000
     25 CA         91.2084    4.3137   31.9123 Ca     25  UNL25       0.0000
     26 CA         89.0054    0.3398   15.9394 Ca     26  UNL26       0.0000
     27 CA         82.7375   -4.7641    1.5744 Ca     27  UNL27       0.0000
     28 CA         72.2544  -11.6245   -9.0445 Ca     28  UNL28       0.0000
     29 CA         60.5764  -16.7589  -19.1196 Ca     29  UNL29       0.0000
     30 O          47.9702    0.7393   27.8339 O.3    30  HOH30       0.0000
     31 CA         45.4253  -21.0631  -25.0322 Ca     31  UNL31       0.0000
     32 CA         33.9879  -26.0021  -33.0206 Ca     32  UNL32       0.0000
     33 CA         21.9496  -35.6674  -37.1062 Ca     33  UNL33       0.0000
     34 CA         10.6019  -42.6988  -44.8305 Ca     34  UNL34       0.0000
     35 CA          9.1395  -50.1359  -57.2081 Ca     35  UNL35       0.0000
     36 CA          2.6087  -57.2223  -70.1760 Ca     36  UNL36       0.0000
     37 CA         -0.6909  -59.8981  -84.9347 Ca     37  UNL37       0.0000
     38 CA         -2.7630  -70.9283  -96.8081 Ca     38  UNL38       0.0000
     39 CA         -3.8643  -78.2450 -111.8889 Ca     39  UNL39       0.0000
     40 CA         -8.4636  -89.1345 -122.1299 Ca     40  UNL40       0.0000
     41 CA        -18.4104  -98.1727 -129.8585 Ca     41  UNL41       0.0000
     42 CA        -29.1619 -108.2327 -135.6363 Ca     42  UNL42       0.0000
     43 CA        -43.4645 -113.6291 -138.8206 Ca     43  UNL43       0.0000
     44 CA        -54.7114 -123.3092 -140.7489 Ca     44  UNL44       0.0000
     45 CA        -67.7721 -133.0240 -143.3410 Ca     45  UNL45       0.0000
     46 CA        -82.1114 -143.1509 -143.1481 Ca     46  UNL46       0.0000
     47 CA        -97.1967 -147.8772 -139.6302 Ca     47  UNL47       0.0000
     48 CA       -114.0937 -147.6917 -143.9302 Ca     48  UNL48       0.0000
     49 CA       -129.2066 -150.4952 -149.7116 Ca     49  UNL49       0.0000
     50 CA       -143.2513 -154.2676 -157.4327 Ca     50  UNL50       0.0000
     51 CA       -155.3824 -163.1945 -164.6569 Ca     51  UNL51       0.0000
     52 CA       -163.8374 -175.1452 -172.5373 Ca     52  UNL52       0.0000
     53 CA       -164.4756 -191.0232 -177.1806 Ca     53  UNL53       0.0000
     54 CA       -159.1246 -206.6449 -179.6231 Ca     54  UNL54       0.0000
     55 CA       -147.5589 -218.2589 -179.0374 Ca     55  UNL55       0.0000
     56 CA       -133.0000 -225.6727 -176.2289 Ca     56  UNL56       0.0000
     57 CA       -116.9211 -227.7979 -172.7813 Ca     57  UNL57       0.0000
     58 CA       -101.1834 -223.5837 -168.8228 Ca     58  UNL58       0.0000
     59 CA        -88.2440 -213.6825 -164.9064 Ca     59  UNL59       0.0000
     60 CA        -81.1003 -198.3575 -162.4642 Ca     60  UNL60       0.0000
     61 CA        -80.1821 -182.0759 -160.2746 Ca     61  UNL61       0.0000
     62 CA        -86.6280 -166.3059 -160.8331 Ca     62  UNL62       0.0000
     63 CA        -96.9973 -153.4280 -162.0358 Ca     63  UNL63       0.0000
     64 CA       -111.4281 -145.9092 -167.2111 Ca     64  UNL64       0.0000
     65 CA       -126.6205 -144.0381 -173.5428 Ca     65  UNL65       0.0000
     66 CA       -140.1891 -149.0330 -182.5028 Ca     66  UNL66       0.0000
     67 CA       -149.5743 -159.5909 -190.2765 Ca     67  UNL67       0.0000
     68 CA       -154.4007 -174.1814 -196.8297 Ca     68  UNL68       0.0000
     69 CA       -153.7380 -189.8015 -200.9377 Ca     69  UNL69       0.0000
     70 CA       -147.9063 -205.0300 -202.3487 Ca     70  UNL70       0.0000
     71 CA       -136.7866 -216.7232 -202.0523 Ca     71  UNL71       0.0000
     72 CA       -122.0779 -223.3853 -199.2763 Ca     72  UNL72       0.0000
     73 CA       -106.4942 -222.4026 -196.1912 Ca     73  UNL73       0.0000
     74 CA        -92.2458 -215.6408 -190.7552 Ca     74  UNL74       0.0000
     75 CA        -80.9976 -204.8307 -186.3456 Ca     75  UNL75       0.0000
     76 CA        -73.1657 -191.7389 -179.8781 Ca     76  UNL76       0.0000
     77 O        -121.8733 -187.4300 -176.6355 O.3    77  HOH77       0.0000
     78 CA        -65.8229 -177.9641 -174.7307 Ca     78  UNL78       0.0000
     79 CA        -55.7101 -167.1793 -167.7482 Ca     79  UNL79       0.0000
     80 CA        -41.5839 -161.4868 -172.1311 Ca     80  UNL80       0.0000
     81 CA        -27.0595 -155.5954 -169.3456 Ca     81  UNL81       0.0000
     82 CA        -12.3773 -147.7867 -169.0628 Ca     82  UNL82       0.0000
     83 CA          2.0704 -142.6123 -168.2421 Ca     83  UNL83       0.0000
     84 CA         17.3148 -140.8982 -171.1791 Ca     84  UNL84       0.0000
     85 CA         32.1695 -139.3545 -173.1059 Ca     85  UNL85       0.0000
     86 CA         43.7092 -131.4112 -165.4990 Ca     86  UNL86       0.0000
     87 CA         52.8891 -127.1267 -153.7202 Ca     87  UNL87       0.0000
     88 CA         60.7334 -123.6800 -139.7573 Ca     88  UNL88       0.0000
     89 CA         69.3564 -116.8909 -129.1051 Ca     89  UNL89       0.0000
     90 CA         82.3235 -116.2858 -119.2373 Ca     90  UNL90       0.0000
     91 CA         97.0929 -118.8693 -114.6611 Ca     91  UNL91       0.0000
     92 CA        112.5915 -122.7767 -112.5315 Ca     92  UNL92       0.0000
     93 CA        128.1070 -122.9777 -114.2136 Ca     93  UNL93       0.0000
     94 CA        142.9120 -119.6091 -118.3672 Ca     94  UNL94       0.0000
     95 CA        155.5836 -111.4002 -119.0249 Ca     95  UNL95       0.0000
     96 CA        170.3591 -105.5728 -124.2396 Ca     96  UNL96       0.0000
     97 CA        184.1661 -100.2704 -127.3099 Ca     97  UNL97       0.0000
     98 CA        196.0494 -100.0049 -134.3645 Ca     98  UNL98       0.0000
     99 CA        209.6894  -97.6409 -142.8656 Ca     99  UNL99       0.0000
    100 CA        223.9983  -94.4847 -150.6543 Ca    100  UNL100      0.0000
    101 CA        236.0352  -87.2533 -159.0395 Ca    101  UNL101      0.0000
    102 CA        246.6705  -75.9811 -165.6496 Ca    102  UNL102      0.0000
    103 CA        250.8566  -61.5458 -170.7327 Ca    103  UNL103      0.0000
    104 CA        249.8100  -45.0336 -170.5938 Ca    104  UNL104      0.0000
    105 CA        242.8219  -30.8350 -168.2076 Ca    105  UNL105      0.0000
    106 CA        231.3556  -20.8192 -162.1719 Ca    106  UNL106      0.0000
    107 CA        217.5490  -15.7109 -155.3580 Ca    107  UNL107      0.0000
    108 CA        202.1387  -16.1879 -149.2067 Ca    108  UNL108      0.0000
    109 CA        188.1397  -22.7106 -144.2641 Ca    109  UNL109      0.0000
    110 CA        176.4338  -34.7326 -142.1152 Ca    110  UNL110      0.0000
    111 CA        171.1911  -50.3367 -142.1131 Ca    111  UNL111      0.0000
    112 CA        171.3231  -67.0521 -145.0307 Ca    112  UNL112      0.0000
    113 CA        178.6093  -81.3364 -149.8223 Ca    113  UNL113      0.0000
    114 CA        188.8025  -92.6457 -157.3958 Ca    114  UNL114      0.0000
    115 CA        202.5499  -96.9214 -166.1048 Ca    115  UNL115      0.0000
    116 CA        216.1911  -95.6810 -176.2627 Ca    116  UNL116      0.0000
    117 CA        227.6776  -86.7168 -184.9366 Ca    117  UNL117      0.0000
    118 CA        235.2449  -73.1079 -190.7312 Ca    118  UNL118      0.0000
    119 CA        238.1229  -56.6752 -193.3772 Ca    119  UNL119      0.0000
    120 CA        236.0009  -40.5772 -192.4288 Ca    120  UNL120      0.0000
    121 CA        229.2698  -25.8630 -188.7851 Ca    121  UNL121      0.0000
    122 CA        217.5736  -15.9242 -182.8666 Ca    122  UNL122      0.0000
    123 CA        203.1671  -11.8685 -175.9835 Ca    123  UNL123      0.0000
    124 CA        188.4850  -16.5952 -169.8295 Ca    124  UNL124      0.0000
    125 CA        175.6882  -25.3794 -164.2825 Ca    125  UNL125      0.0000
    126 CA        166.3059  -38.4416 -160.9548 Ca    126  UNL126      0.0000
    127 CA        158.5227  -51.9035 -156.2177 Ca    127  UNL127      0.0000
    128 O         209.5396  -53.3560 -164.2735 O.3   128  HOH128      0.0000
    129 CA        152.9470  -65.8912 -153.1853 Ca    129  UNL129      0.0000
    130 CA        142.2853  -76.4792 -146.1269 Ca    130  UNL130      0.0000
    131 CA        129.9765  -85.3867 -140.5535 Ca    131  UNL131      0.0000
    132 CA        121.2380  -95.8952 -133.4811 Ca    132  UNL132      0.0000
    133 CA        110.3563 -105.8129 -126.4954 Ca    133  UNL133      0.0000
    134 CA        100.6144 -117.7966 -128.1817 Ca    134  UNL134      0.0000
    135 CA         85.3884 -123.7401 -131.4592 Ca    135  UNL135      0.0000
    136 CA         72.1884 -133.1972 -135.6783 Ca    136  UNL136      0.0000
    137 CA         61.2227 -144.6752 -137.3079 Ca    137  UNL137      0.0000
    138 CA         55.0370 -157.1646 -144.6767 Ca    138  UNL138      0.0000
    139 CA         51.5730 -170.3328 -153.5863 Ca    139  UNL139      0.0000
    140 CA         45.2618 -180.4872 -165.2481 Ca    140  UNL140      0.0000
    141 CA         36.6258 -188.8402 -175.1844 Ca    141  UNL141      0.0000
    142 CA         28.9953 -194.8446 -188.2874 Ca    142  UNL142      0.0000
    143 CA         26.3701 -198.2561 -203.7410 Ca    143  UNL143      0.0000
    144 CA         23.8795 -202.9652 -219.5030 Ca    144  UNL144      0.0000
    145 CA         20.0465 -203.1180 -234.0807 Ca    145  UNL145      0.0000
    146 CA         19.2834 -209.1224 -247.1734 Ca    146  UNL146      0.0000
    147 CA         22.4328 -214.7862 -262.6361 Ca    147  UNL147      0.0000
    148 CA         25.7361 -219.2451 -277.5358 Ca    148  UNL148      0.0000
    149 CA         22.2078 -223.0350 -293.6351 Ca    149  UNL149      0.0000
    150 CA         23.5616 -225.4089 -310.9449 Ca    150  UNL150      0.0000
    151 CA         25.5882 -230.0144 -326.3756 Ca    151  UNL151      0.0000
    152 CA         31.3634 -231.8236 -341.8834 Ca    152  UNL152      0.0000
    153 CA         42.5119 -234.6833 -351.5798 Ca    153  UNL153      0.0000
    154 CA         53.2689 -232.2500 -363.6289 Ca    154  UNL154      0.0000
    155 CA         64.0208 -229.0909 -375.0510 Ca    155  UNL155      0.0000
    156 CA         73.8945 -226.0799 -387.8232 Ca    156  UNL156      0.0000
    157 CA         83.6851 -225.4421 -401.0458 Ca    157  UNL157      0.0000
    158 CA         88.9799 -226.7189 -416.8375 Ca    158  UNL158      0.0000
    159 CA         90.7690 -231.2802 -432.7246 Ca    159  UNL159      0.0000
    160 CA         84.0135 -238.5151 -445.9948 Ca    160  UNL160      0.0000
    161 CA         72.8721 -247.2241 -454.8638 Ca    161  UNL161      0.0000
    162 CA         59.0526 -255.9544 -456.2042 Ca    162  UNL162      0.0000
    163 CA         44.9022 -263.5301 -452.0582 Ca    163  UNL163      0.0000
    164 CA         32.7966 -270.1400 -442.8551 Ca    164  UNL164      0.0000
    165 CA         24.4770 -274.6061 -429.0008 Ca    165  UNL165      0.0000
    166 CA         21.2091 -276.1776 -412.6407 Ca    166  UNL166      0.0000
    167 CA         25.2923 -274.4140 -396.1461 Ca    167  UNL167      0.0000
    168 CA         33.5314 -269.1943 -382.8948 Ca    168  UNL168      0.0000
    169 CA         47.0666 -262.2435 -375.2112 Ca    169  UNL169      0.0000
    170 CA         61.3523 -254.3553 -372.2951 Ca    170  UNL170      0.0000
    171 CA         76.8376 -248.7146 -376.7620 Ca    171  UNL171      0.0000
    172 CA         89.9336 -244.9577 -386.1844 Ca    172  UNL172      0.0000
    173 CA         99.4144 -245.8697 -400.2777 Ca    173  UNL173      0.0000
    174 CA        102.5090 -249.4941 -415.6812 Ca    174  UNL174      0.0000
    175 CA         99.9303 -255.6361 -431.0026 Ca    175  UNL175      0.0000
    176 CA         92.3136 -263.0960 -443.1534 Ca    176  UNL176      0.0000
    177 CA         80.5645 -271.1496 -451.2157 Ca    177  UNL177      0.0000
    178 CA         67.1057 -279.8850 -452.9544 Ca    178  UNL178      0.0000
    179 CA         53.3523 -287.3855 -448.1564 Ca    179  UNL179      0.0000
    180 CA         43.6307 -293.2535 -437.0033 Ca    180  UNL180      0.0000
    181 CA         36.8560 -295.0982 -421.8709 Ca    181  UNL181      0.0000
    182 CA         34.7967 -295.1237 -405.7904 Ca    182  UNL182      0.0000
    183 CA         34.8509 -291.0693 -389.7242 Ca    183  UNL183      0.0000
    184 O          62.4622 -260.6358 -416.4248 O.3   184  HOH184      0.0000
    185 CA         38.3119 -287.8265 -374.3262 Ca    185  UNL185      0.0000
    186 CA         42.1547 -288.2845 -358.5131 Ca    186  UNL186      0.0000
    187 CA         43.7364 -291.7501 -342.5306 Ca    187  UNL187      0.0000
    188 CA         47.3579 -298.7892 -329.2527 Ca    188  UNL188      0.0000
    189 CA         49.4937 -302.2471 -312.4567 Ca    189  UNL189      0.0000
    190 CA         43.2624 -303.2266 -296.0961 Ca    190  UNL190      0.0000
    191 CA         40.9114 -307.0072 -278.5224 Ca    191  UNL191      0.0000
    192 CA         34.1805 -302.7244 -265.7223 Ca    192  UNL192      0.0000
    193 CA         31.5892 -303.3446 -251.4384 Ca    193  UNL193      0.0000
    194 CA         22.8194 -302.2308 -238.0058 Ca    194  UNL194      0.0000
    195 CA         17.5992 -296.0170 -223.3216 Ca    195  UNL195      0.0000
    196 CA         16.9775 -289.6727 -209.8303 Ca    196  UNL196      0.0000
    197 CA         15.5256 -281.8472 -196.6526 Ca    197  UNL197      0.0000
    198 CA          7.1155 -279.0786 -184.3853 Ca    198  UNL198      0.0000
    199 CA         -0.7793 -272.7649 -172.0835 Ca    199  UNL199      0.0000
    200 CA        -11.1323 -265.8816 -161.2664 Ca    200  UNL200      0.0000
    201 CA        -19.9464 -257.8050 -152.6851 Ca    201  UNL201      0.0000
    202 CA        -32.2069 -261.3354 -142.9629 Ca    202  UNL202      0.0000
    203 CA        -41.3167 -268.2292 -131.1414 Ca    203  UNL203      0.0000
    204 CA        -49.4316 -276.5290 -121.3768 Ca    204  UNL204      0.0000
    205 CA        -61.3772 -285.8375 -115.9510 Ca    205  UNL205      0.0000
    206 CA        -72.0008 -295.1384 -106.3863 Ca    206  UNL206      0.0000
    207 CA        -78.7710 -306.4247  -98.4617 Ca    207  UNL207      0.0000
    208 CA        -80.9082 -314.5121  -82.9330 Ca    208  UNL208      0.0000
    209 CA        -87.4944 -325.4215  -72.5357 Ca    209  UNL209      0.0000
    210 CA        -99.3251 -335.2423  -65.5568 Ca    210  UNL210      0.0000
    211 CA       -110.4227 -345.6052  -66.8947 Ca    211  UNL211      0.0000
    212 CA       -122.2266 -354.8970  -69.9025 Ca    212  UNL212      0.0000
    213 CA       -136.0608 -361.2414  -68.0692 Ca    213  UNL213      0.0000
    214 CA       -150.4189 -364.3633  -72.7643 Ca    214  UNL214      0.0000
    215 CA       -165.5360 -369.6647  -76.3768 Ca    215  UNL215      0.0000
    216 CA       -179.6153 -377.0358  -80.6830 Ca    216  UNL216      0.0000
    217 CA       -192.2545 -387.9530  -81.0105 Ca    217  UNL217      0.0000
    218 CA       -201.4775 -401.7024  -79.4951 Ca    218  UNL218      0.0000
    219 CA       -203.3589 -416.5045  -72.3233 Ca    219  UNL219      0.0000
    220 CA       -199.3211 -429.8964  -63.2133 Ca    220  UNL220      0.0000
    221 CA       -188.8374 -438.5660  -54.0524 Ca    221  UNL221      0.0000
    222 CA       -175.0740 -442.7732  -45.8255 Ca    222  UNL222      0.0000
    223 CA       -159.3546 -442.7201  -40.5502 Ca    223  UNL223      0.0000
    224 CA       -143.4366 -437.6371  -39.1769 Ca    224  UNL224      0.0000
    225 CA       -129.8069 -428.2699  -41.8760 Ca    225  UNL225      0.0000
    226 CA       -121.4293 -415.6468  -49.7708 Ca    226  UNL226      0.0000
    227 CA       -119.1593 -402.2154  -58.9997 Ca    227  UNL227      0.0000
    228 CA       -124.1830 -390.6913  -70.5110 Ca    228  UNL228      0.0000
    229 CA       -133.3462 -381.5596  -80.8770 Ca    229  UNL229      0.0000
    230 CA       -146.9008 -378.8779  -90.9092 Ca    230  UNL230      0.0000
    231 CA       -161.6721 -381.1035  -98.0686 Ca    231  UNL231      0.0000
    232 CA       -175.3464 -390.2320 -102.4298 Ca    232  UNL232      0.0000
    233 CA       -185.3772 -402.8425 -101.8454 Ca    233  UNL233      0.0000
    234 CA       -191.2582 -417.8006  -97.2860 Ca    234  UNL234      0.0000
    235 CA       -191.8380 -432.1089  -89.7865 Ca    235  UNL235      0.0000
    236 CA       -187.3187 -444.5361  -80.1406 Ca    236  UNL236      0.0000
    237 CA       -177.2772 -453.4397  -71.1761 Ca    237  UNL237      0.0000
    238 CA       -163.2980 -457.1217  -63.4650 Ca    238  UNL238      0.0000
    239 CA       -147.7891 -455.0018  -60.5814 Ca    239  UNL239      0.0000
    240 CA       -133.1764 -446.9795  -59.9483 Ca    240  UNL240      0.0000
    241 CA       -121.1662 -436.5355  -63.0308 Ca    241  UNL241      0.0000
    242 CA       -112.4209 -422.8715  -66.4038 Ca    242  UNL242      0.0000
    243 O        -160.6418 -415.3650  -70.8650 O.3   243  HOH243      0.0000
    244 CA       -103.8074 -409.7175  -70.2966 Ca    244  UNL244      0.0000
    245 CA       -104.5808 -394.7319  -74.0302 Ca    245  UNL245      0.0000
    246 CA        -97.8599 -380.5494  -78.8600 Ca    246  UNL246      0.0000
    247 CA        -84.2226 -371.4535  -80.0684 Ca    247  UNL247      0.0000
    248 CA        -68.7849 -368.3854  -82.5408 Ca    248  UNL248      0.0000
    249 CA        -54.2946 -374.8337  -85.7239 Ca    249  UNL249      0.0000
    250 CA        -39.9966 -380.7065  -81.8545 Ca    250  UNL250      0.0000
    251 CA        -24.9923 -385.0705  -76.9252 Ca    251  UNL251      0.0000
    252 CA        -11.1660 -384.2713  -68.5304 Ca    252  UNL252      0.0000
    253 CA         -0.2859 -387.5743  -58.3934 Ca    253  UNL253      0.0000
    254 CA         12.7889 -385.9112  -52.2415 Ca    254  UNL254      0.0000
    255 CA         26.8831 -384.9328  -54.6947 Ca    255  UNL255      0.0000
    256 CA         38.9404 -377.9467  -59.3629 Ca    256  UNL256      0.0000
    257 CA         51.7529 -368.7425  -64.5643 Ca    257  UNL257      0.0000
    258 CA         65.4019 -364.5214  -72.0864 Ca    258  UNL258      0.0000
    259 CA         76.9768 -355.6527  -77.2040 Ca    259  UNL259      0.0000
    260 CA         86.7309 -348.7461  -88.0915 Ca    260  UNL260      0.0000
    261 CA         93.7371 -337.1847  -95.6627 Ca    261  UNL261      0.0000
    262 CA        101.3305 -326.1247 -102.3879 Ca    262  UNL262      0.0000
    263 CA        108.2863 -318.9284 -115.7712 Ca    263  UNL263      0.0000
    264 CA        115.6509 -309.8003 -127.2658 Ca    264  UNL264      0.0000
    265 CA        121.8042 -298.7897 -137.8490 Ca    265  UNL265      0.0000
    266 CA        129.9621 -285.4934 -143.8240 Ca    266  UNL266      0.0000
    267 CA        137.2163 -270.6125 -145.3538 Ca    267  UNL267      0.0000
    268 CA        143.8003 -257.4668 -137.7433 Ca    268  UNL268      0.0000
    269 CA        147.8904 -247.3624 -125.1018 Ca    269  UNL269      0.0000
    270 CA        147.7324 -243.2088 -109.2363 Ca    270  UNL270      0.0000
    271 CA        144.6994 -243.8615  -92.9516 Ca    271  UNL271      0.0000
    272 CA        138.1675 -248.4374  -78.4146 Ca    272  UNL272      0.0000
    273 CA        128.5988 -257.0947  -67.7096 Ca    273  UNL273      0.0000
    274 CA        117.5212 -268.5360  -62.4955 Ca    274  UNL274      0.0000
    275 CA        106.0692 -280.9004  -65.2931 Ca    275  UNL275      0.0000
    276 CA         97.6901 -292.4191  -73.5293 Ca    276  UNL276      0.0000
    277 CA         92.4625 -300.0491  -87.8474 Ca    277  UNL277      0.0000
    278 CA         90.8428 -304.7004 -103.6762 Ca    278  UNL278      0.0000
    279 CA         92.3880 -302.2825 -120.5086 Ca    279  UNL279      0.0000
    280 CA         96.8801 -295.4720 -134.9252 Ca    280  UNL280      0.0000
    281 CA        102.7204 -282.8619 -144.7341 Ca    281  UNL281      0.0000
    282 CA        109.8195 -268.7066 -147.7691 Ca    282  UNL282      0.0000
    283 CA        117.1176 -254.0110 -144.6234 Ca    283  UNL283      0.0000
    284 CA        123.0799 -241.6902 -136.0238 Ca    284  UNL284      0.0000
    285 CA        127.2505 -232.7192 -122.9842 Ca    285  UNL285      0.0000
    286 CA        127.2401 -228.2054 -107.4892 Ca    286  UNL286      0.0000
    287 CA        123.6793 -229.3063  -91.5348 Ca    287  UNL287      0.0000
    288 CA        115.5059 -235.3396  -79.2820 Ca    288  UNL288      0.0000
    289 CA        106.2580 -246.3690  -70.8490 Ca    289  UNL289      0.0000
    290 CA         95.9744 -258.4039  -67.3514 Ca    290  UNL290      0.0000
    291 CA         87.6522 -272.7323  -67.3185 Ca    291  UNL291      0.0000
    292 O         116.4443 -268.3225 -106.7277 O.3   292  HOH292      0.0000
    293 CA         79.7416 -286.5219  -67.9699 Ca    293  UNL293      0.0000
    294 CA         83.7085 -303.1413  -66.3083 Ca    294  UNL294      0.0000
    295 CA         80.8783 -318.1587  -61.3883 Ca    295  UNL295      0.0000
    296 CA         86.1834 -333.4785  -61.5168 Ca    296  UNL296      0.0000
    297 CA         93.8155 -346.1642  -63.1567 Ca    297  UNL297      0.0000
    298 CA        101.6126 -355.3220  -72.5522 Ca    298  UNL298      0.0000
    299 CA        112.9533 -365.2731  -77.4030 Ca    299  UNL299      0.0000
    300 CA        126.5310 -373.1266  -81.4441 Ca    300  UNL300      0.0000
    301 CA        140.5525 -375.9824  -90.1293 Ca    301  UNL301      0.0000
    302 CA        155.0046 -385.5957  -90.4938 Ca    302  UNL302      0.0000
    303 CA        167.9710 -394.0295  -92.9970 Ca    303  UNL303      0.0000
@<TRIPOS>BOND
