@<TRIPOS>MOLECULE
COMMENT  TcB parTocc2xyz Temp(K):    298.000
 303 0 0 0 0
SMALL
GASTEIGER

@<TRIPOS>ATOM
      1 CA          1.0468    0.7791   13.0807 Ca      1  UNL1        0.0000
      2 CA          2.3685    2.6815   29.5125 Ca      2  UNL2        0.0000
      3 CA          8.2173    4.5846   44.6671 Ca      3  UNL3        0.0000
      4 CA         17.6542    8.7661   57.9835 Ca      4  UNL4        0.0000
      5 CA         31.2835   12.2778   65.3080 Ca      5  UNL5        0.0000
      6 CA         46.7287   18.2060   65.5737 Ca      6  UNL6        0.0000
      7 CA         60.9825   22.1806   59.4778 Ca      7  UNL7        0.0000
      8 CA         71.5349   25.2948   47.3464 Ca      8  UNL8        0.0000
      9 CA         77.9684   26.0254   32.4728 Ca      9  UNL9        0.0000
     10 CA         79.8734   23.3274   16.2052 Ca     10  UNL10       0.0000
     11 CA         76.1799   18.0358    1.3289 Ca     11  UNL11       0.0000
     12 CA         67.6085    9.5297  -10.5182 Ca     12  UNL12       0.0000
     13 CA         54.6317    1.0500  -16.0562 Ca     13  UNL13       0.0000
     14 CA         40.0344   -7.5894  -15.5945 Ca     14  UNL14       0.0000
     15 CA         26.3079  -13.3549   -7.9504 Ca     15  UNL15       0.0000
     16 CA         15.3410  -18.7887    3.8548 Ca     16  UNL16       0.0000
     17 CA         10.2301  -20.7265   19.7683 Ca     17  UNL17       0.0000
     18 CA         10.6403  -21.7490   36.7858 Ca     18  UNL18       0.0000
     19 CA         18.3135  -19.6743   51.7641 Ca     19  UNL19       0.0000
     20 CA         30.4855  -15.4227   62.2430 Ca     20  UNL20       0.0000
     21 CA         45.6077   -9.8469   67.2978 Ca     21  UNL21       0.0000
     22 CA         60.7266   -3.9523   66.1938 Ca     22  UNL22       0.0000
     23 CA         75.0285    1.3364   59.6688 Ca     23  UNL23       0.0000
     24 CA         85.6045    4.2183   47.4029 Ca     24  UNL24       0.0000
     25 CA         91.2084    4.3137   31.9123 Ca     25  UNL25       0.0000
     26 CA         89.0054    0.3398   15.9394 Ca     26  UNL26       0.0000
     27 CA         82.7375   -4.7641    1.5744 Ca     27  UNL27       0.0000
     28 CA         72.2544  -11.6245   -9.0445 Ca     28  UNL28       0.0000
     29 CA         60.5764  -16.7589  -19.1196 Ca     29  UNL29       0.0000
     30 O          47.9702    0.7393   27.8339 O.3    30  HOH30       0.0000