@<TRIPOS>MOLECULE
Converted_From_XYZ
297 0 0 0 0
SMALL
NO_CHARGES

@<TRIPOS>ATOM
1       CA1     -2.2673     0.9987    14.0882 CA   1 <0> 0.0000
2       CA2     -7.1243     2.8232    30.0973 CA   1 <0> 0.0000
3       CA3    -12.5193    -0.4757    44.0636 CA   1 <0> 0.0000
4       CA4    -22.6867    -2.3481    55.1457 CA   1 <0> 0.0000
5       CA5    -32.2039     3.1118    66.7706 CA   1 <0> 0.0000
6       CA6    -39.8652    10.1947    80.7296 CA   1 <0> 0.0000
7       CA7    -43.5961    13.4407    95.9697 CA   1 <0> 0.0000
8       CA8    -39.1376    17.4702   111.4842 CA   1 <0> 0.0000
9       CA9    -38.4567    21.1453   126.3410 CA   1 <0> 0.0000
10      CA10   -40.8709    30.4450   140.1657 CA   1 <0> 0.0000
11      CA11   -43.4292    36.9866   155.0433 CA   1 <0> 0.0000
12      CA12   -38.6465    44.6991   167.6798 CA   1 <0> 0.0000
13      CA13   -34.0572    53.6011   180.2555 CA   1 <0> 0.0000
14      CA14   -30.6840    59.5012   194.2305 CA   1 <0> 0.0000
15      CA15   -30.5641    68.8206   208.0921 CA   1 <0> 0.0000
16      CA16   -33.7373    72.2984   223.4852 CA   1 <0> 0.0000
17      CA17   -38.3950    71.0890   238.4146 CA   1 <0> 0.0000
18      CA18   -47.3123    71.9741   251.9464 CA   1 <0> 0.0000
19      CA19   -53.2702    70.3933   266.3800 CA   1 <0> 0.0000
20      CA20   -59.3084    69.5524   281.0253 CA   1 <0> 0.0000
21      CA21   -73.0861    65.0759   287.1006 CA   1 <0> 0.0000
22      CA22   -88.7424    61.2318   293.1230 CA   1 <0> 0.0000
23      CA23  -100.7918    54.1004   295.3369 CA   1 <0> 0.0000
24      CA24  -112.8044    44.6135   303.0976 CA   1 <0> 0.0000
25      CA25  -128.7502    39.1752   301.5658 CA   1 <0> 0.0000
26      CA26  -140.9194    29.2384   304.9961 CA   1 <0> 0.0000
27      CA27  -155.6860    26.3334   306.5703 CA   1 <0> 0.0000
28      CA28  -167.4681    17.0422   307.4317 CA   1 <0> 0.0000
29      CA29  -181.8000     9.5363   310.9838 CA   1 <0> 0.0000
30      CA30  -194.9121    -0.2033   309.8408 CA   1 <0> 0.0000
31      CA31  -208.4927    -6.4242   309.7586 CA   1 <0> 0.0000
32      CA32  -223.6985    -7.4875   304.5917 CA   1 <0> 0.0000
33      CA33  -239.5326    -9.9250   300.6923 CA   1 <0> 0.0000
34      CA34  -254.8598    -6.3904   296.4543 CA   1 <0> 0.0000
35      CA35  -268.0311    -0.0051   296.7850 CA   1 <0> 0.0000
36      CA36  -281.5037     7.7778   295.2794 CA   1 <0> 0.0000
37      CA37  -297.4154    10.8977   288.2444 CA   1 <0> 0.0000
38      CA38  -311.0894    11.9728   279.6339 CA   1 <0> 0.0000
39      CA39  -325.2550     8.1725   271.6430 CA   1 <0> 0.0000
40      CA40  -339.3173     1.9604   267.4097 CA   1 <0> 0.0000
41      CA41  -350.6058    -3.2969   260.0339 CA   1 <0> 0.0000
42      CA42  -360.9220   -13.6048   254.2981 CA   1 <0> 0.0000
43      CA43  -369.2116   -25.2310   251.9072 CA   1 <0> 0.0000
44      CA44  -377.1227   -38.3064   253.5616 CA   1 <0> 0.0000
45      CA45  -386.5134   -48.9412   254.6401 CA   1 <0> 0.0000
46      CA46  -394.4147   -59.8007   260.8666 CA   1 <0> 0.0000
47      CA47  -405.6814   -69.7188   268.5278 CA   1 <0> 0.0000
48      CA48  -418.8025   -77.7398   273.0743 CA   1 <0> 0.0000
49      CA49  -425.7592   -78.9963   286.9925 CA   1 <0> 0.0000
50      CA50  -430.0485   -80.3519   301.9051 CA   1 <0> 0.0000
51      CA51  -430.8097   -83.3801   317.6547 CA   1 <0> 0.0000
52      CA52  -436.0675   -86.0097   332.3655 CA   1 <0> 0.0000
53      CA53  -444.7128   -92.6801   344.3455 CA   1 <0> 0.0000
54      CA54  -457.5458   -92.5974   352.8152 CA   1 <0> 0.0000
55      CA55  -468.8066   -94.4035   364.7227 CA   1 <0> 0.0000
56      CA56  -475.8566   -96.1331   378.3554 CA   1 <0> 0.0000
57      CA57  -480.0248   -98.0328   393.2039 CA   1 <0> 0.0000
58      CA58  -487.9251  -102.5840   404.4489 CA   1 <0> 0.0000
59      CA59  -497.3731  -110.8950   416.0705 CA   1 <0> 0.0000
60      CA60  -509.9435  -116.3799   425.8730 CA   1 <0> 0.0000
61      CA61  -520.4447  -125.5754   432.8678 CA   1 <0> 0.0000
62      CA62  -525.1791  -138.3598   441.7017 CA   1 <0> 0.0000
63      CA63  -533.8427  -150.3506   449.0836 CA   1 <0> 0.0000
64      CA64  -540.8391  -163.4984   456.2484 CA   1 <0> 0.0000
65      CA65  -550.0250  -169.4760   466.0373 CA   1 <0> 0.0000
66      CA66  -563.0413  -179.7232   471.7838 CA   1 <0> 0.0000
67      CA67  -572.9237  -191.3691   476.6734 CA   1 <0> 0.0000
68      CA68  -583.4277  -196.4706   486.1270 CA   1 <0> 0.0000
69      CA69  -589.3667  -212.4654   486.5575 CA   1 <0> 0.0000
70      CA70  -594.1781  -228.7227   485.2671 CA   1 <0> 0.0000
71      CA71  -598.6034  -243.3537   484.9479 CA   1 <0> 0.0000
72      CA72  -596.2968  -258.1036   487.5732 CA   1 <0> 0.0000
73      CA73  -597.5966  -272.5493   493.3912 CA   1 <0> 0.0000
74      CA74  -595.4615  -288.2120   493.7166 CA   1 <0> 0.0000
75      CA75  -591.9593  -303.5595   499.1256 CA   1 <0> 0.0000
76      CA76  -581.7728  -313.5426   495.1298 CA   1 <0> 0.0000
77      CA77  -576.2557  -326.0136   488.0070 CA   1 <0> 0.0000
78      CA78  -573.1814  -334.6678   476.5624 CA   1 <0> 0.0000
79      CA79  -566.7670  -342.2123   463.6920 CA   1 <0> 0.0000
80      CA80  -563.5361  -346.5090   448.5741 CA   1 <0> 0.0000
81      CA81  -560.2645  -347.4791   433.1295 CA   1 <0> 0.0000
82      CA82  -560.9504  -347.0185   416.4087 CA   1 <0> 0.0000
83      CA83  -562.4269  -350.6070   399.6705 CA   1 <0> 0.0000
84      CA84  -561.4131  -360.2650   386.9223 CA   1 <0> 0.0000
85      CA85  -553.2578  -366.6854   374.5045 CA   1 <0> 0.0000
86      CA86  -550.4036  -378.7426   363.9138 CA   1 <0> 0.0000
87      CA87  -545.9250  -385.8232   349.8579 CA   1 <0> 0.0000
88      CA88  -540.1791  -396.3368   341.7073 CA   1 <0> 0.0000
89      CA89  -542.3720  -411.4320   335.3491 CA   1 <0> 0.0000
90      CA90  -538.0439  -422.9957   330.6076 CA   1 <0> 0.0000
91      CA91  -538.2920  -437.7830   325.0292 CA   1 <0> 0.0000
92      CA92  -533.3535  -448.1554   314.7021 CA   1 <0> 0.0000
93      CA93  -534.0084  -464.8036   311.1501 CA   1 <0> 0.0000
94      CA94  -532.1475  -480.0054   305.8019 CA   1 <0> 0.0000
95      CA95  -529.2757  -493.6621   311.9901 CA   1 <0> 0.0000
96      CA96  -531.3600  -506.7347   320.2693 CA   1 <0> 0.0000
97      CA97  -526.2200  -518.9385   330.2572 CA   1 <0> 0.0000
98      CA98  -526.3412  -530.8130   340.1755 CA   1 <0> 0.0000
99      CA99  -531.4363  -545.1490   346.6089 CA   1 <0> 0.0000
100     CA100  -534.0984  -558.5023   353.1087 CA   1 <0> 0.0000
101     CA101  -536.9884  -572.2930   357.3655 CA   1 <0> 0.0000
102     CA102  -539.6110  -587.1517   358.7249 CA   1 <0> 0.0000
103     CA103  -543.4417  -602.1354   365.1436 CA   1 <0> 0.0000
104     CA104  -544.0934  -616.8607   370.1068 CA   1 <0> 0.0000
105     CA105  -550.9549  -629.6389   379.0229 CA   1 <0> 0.0000
106     CA106  -550.7593  -644.0313   382.2780 CA   1 <0> 0.0000
107     CA107  -550.1764  -657.5481   391.1690 CA   1 <0> 0.0000
108     CA108  -553.9325  -670.0086   398.2941 CA   1 <0> 0.0000
109     CA109  -557.7668  -685.8751   403.3235 CA   1 <0> 0.0000
110     CA110  -562.7273  -698.8256   411.6706 CA   1 <0> 0.0000
111     CA111  -564.3626  -710.2102   423.6682 CA   1 <0> 0.0000
112     CA112  -566.1573  -723.0458   432.6349 CA   1 <0> 0.0000
113     CA113  -570.4893  -734.0711   443.5746 CA   1 <0> 0.0000
114     CA114  -572.4716  -746.4558   452.6992 CA   1 <0> 0.0000
115     CA115  -580.0987  -756.5859   459.4824 CA   1 <0> 0.0000
116     CA116  -591.3130  -767.2378   464.3757 CA   1 <0> 0.0000
117     CA117  -603.9967  -768.4196   473.4531 CA   1 <0> 0.0000
118     CA118  -618.9795  -773.0087   476.1294 CA   1 <0> 0.0000
119     CA119  -635.7563  -770.6994   475.8807 CA   1 <0> 0.0000
120     CA120  -651.1339  -771.4105   474.3758 CA   1 <0> 0.0000
121     CA121  -666.5301  -770.7951   476.7844 CA   1 <0> 0.0000
122     CA122  -681.1331  -767.0343   471.8929 CA   1 <0> 0.0000
123     CA123  -693.7434  -767.5615   461.3489 CA   1 <0> 0.0000
124     CA124  -701.1510  -774.2114   446.9974 CA   1 <0> 0.0000
125     CA125  -706.7015  -780.4783   433.4984 CA   1 <0> 0.0000
126     CA126  -713.4392  -785.6758   420.8832 CA   1 <0> 0.0000
127     CA127  -721.7937  -790.2512   411.3227 CA   1 <0> 0.0000
128     CA128  -734.7966  -795.0124   404.0001 CA   1 <0> 0.0000
129     CA129  -744.6275  -797.1674   394.1934 CA   1 <0> 0.0000
130     CA130  -752.9298  -801.8295   380.5659 CA   1 <0> 0.0000
131     CA131  -760.0176  -805.0295   365.6715 CA   1 <0> 0.0000
132     CA132  -769.1545  -803.5821   352.9045 CA   1 <0> 0.0000
133     CA133  -780.7072  -799.2027   343.0036 CA   1 <0> 0.0000
134     CA134  -791.6354  -796.0023   330.9150 CA   1 <0> 0.0000
135     CA135  -806.1957  -796.7619   321.9118 CA   1 <0> 0.0000
136     CA136  -819.0635  -794.5267   313.8535 CA   1 <0> 0.0000
137     CA137  -831.8599  -790.8935   305.1905 CA   1 <0> 0.0000
138     CA138  -842.6604  -781.2403   300.0578 CA   1 <0> 0.0000
139     CA139  -852.4320  -774.5719   290.1403 CA   1 <0> 0.0000
140     CA140  -862.7733  -764.5801   282.7863 CA   1 <0> 0.0000
141     CA141  -870.2000  -752.2548   274.5360 CA   1 <0> 0.0000
142     CA142  -880.8700  -744.4053   266.7431 CA   1 <0> 0.0000
143     CA143  -887.1637  -740.1146   253.1032 CA   1 <0> 0.0000
144     CA144  -891.3742  -732.2109   241.6383 CA   1 <0> 0.0000
145     CA145  -891.2049  -721.9145   231.5606 CA   1 <0> 0.0000
146     CA146  -891.0873  -714.3235   218.1646 CA   1 <0> 0.0000
147     CA147  -885.9135  -704.7882   207.6874 CA   1 <0> 0.0000
148     CA148  -880.4512  -695.0167   196.0070 CA   1 <0> 0.0000
149     CA149  -881.0453  -680.6714   187.2077 CA   1 <0> 0.0000
150     CA150  -882.6089  -667.0127   180.0395 CA   1 <0> 0.0000
151     CA151  -890.0092  -653.9492   174.1643 CA   1 <0> 0.0000
152     CA152  -892.8009  -640.5071   166.2117 CA   1 <0> 0.0000
153     CA153  -891.5034  -627.0105   157.9837 CA   1 <0> 0.0000
154     CA154  -891.3102  -617.9845   146.6822 CA   1 <0> 0.0000
155     CA155  -882.4965  -608.6770   137.5583 CA   1 <0> 0.0000
156     CA156  -882.3246  -596.1494   126.9777 CA   1 <0> 0.0000
157     CA157  -879.2620  -581.9822   119.9096 CA   1 <0> 0.0000
158     CA158  -869.2999  -572.5057   112.2223 CA   1 <0> 0.0000
159     CA159  -856.2846  -564.0977   108.8602 CA   1 <0> 0.0000
160     CA160  -846.0074  -550.9420   109.8766 CA   1 <0> 0.0000
161     CA161  -837.5367  -537.9039   116.8333 CA   1 <0> 0.0000
162     CA162  -827.8024  -526.9228   119.4283 CA   1 <0> 0.0000
163     CA163  -815.2081  -516.6693   118.0724 CA   1 <0> 0.0000
164     CA164  -804.2048  -505.7249   121.8826 CA   1 <0> 0.0000
165     CA165  -792.3484  -494.6520   116.7845 CA   1 <0> 0.0000
166     CA166  -787.2596  -478.9092   118.9773 CA   1 <0> 0.0000
167     CA167  -783.7514  -463.7333   121.5071 CA   1 <0> 0.0000
168     CA168  -787.9160  -449.4943   125.1293 CA   1 <0> 0.0000
169     CA169  -786.5396  -432.7835   129.0450 CA   1 <0> 0.0000
170     CA170  -790.5540  -420.5054   136.6142 CA   1 <0> 0.0000
171     CA171  -793.7963  -407.9863   145.2048 CA   1 <0> 0.0000
172     CA172  -802.5579  -394.1798   152.1306 CA   1 <0> 0.0000
173     CA173  -809.5284  -381.5373   159.4435 CA   1 <0> 0.0000
174     CA174  -818.1810  -369.3924   166.2530 CA   1 <0> 0.0000
175     CA175  -828.2604  -359.2039   175.6737 CA   1 <0> 0.0000
176     CA176  -829.4633  -347.4127   185.8580 CA   1 <0> 0.0000
177     CA177  -833.3273  -334.4295   195.7334 CA   1 <0> 0.0000
178     CA178  -834.3406  -328.0622   209.9960 CA   1 <0> 0.0000
179     CA179  -833.8616  -313.7383   217.9105 CA   1 <0> 0.0000
180     CA180  -838.0894  -302.3082   227.3823 CA   1 <0> 0.0000
181     CA181  -834.0952  -289.9242   235.7491 CA   1 <0> 0.0000
182     CA182  -829.2329  -278.1343   246.9775 CA   1 <0> 0.0000
183     CA183  -826.9299  -268.3796   259.6852 CA   1 <0> 0.0000
184     CA184  -823.4830  -258.6199   271.9241 CA   1 <0> 0.0000
185     CA185  -813.7384  -255.7701   283.5027 CA   1 <0> 0.0000
186     CA186  -801.1496  -250.1456   292.5021 CA   1 <0> 0.0000
187     CA187  -796.9335  -246.1978   306.5889 CA   1 <0> 0.0000
188     CA188  -789.5014  -242.0090   321.7524 CA   1 <0> 0.0000
189     CA189  -783.6887  -238.5504   335.3412 CA   1 <0> 0.0000
190     CA190  -772.4467  -241.1960   345.2004 CA   1 <0> 0.0000
191     CA191  -759.2613  -245.1124   349.3742 CA   1 <0> 0.0000
192     CA192  -744.8151  -243.3659   344.8668 CA   1 <0> 0.0000
193     CA193  -728.2156  -244.8050   342.3197 CA   1 <0> 0.0000
194     CA194  -712.8706  -249.8880   336.8700 CA   1 <0> 0.0000
195     CA195  -699.6419  -244.1103   337.0975 CA   1 <0> 0.0000
196     CA196  -689.1090  -234.2281   343.7667 CA   1 <0> 0.0000
197     CA197  -676.5607  -225.8084   350.2462 CA   1 <0> 0.0000
198     CA198  -666.6126  -223.0488   362.3909 CA   1 <0> 0.0000
199     CA199  -658.2813  -218.9153   376.9062 CA   1 <0> 0.0000
200     CA200  -647.2333  -212.8980   385.1315 CA   1 <0> 0.0000
201     CA201  -636.4414  -205.2959   394.8292 CA   1 <0> 0.0000
202     CA202  -624.8619  -196.5287   401.4145 CA   1 <0> 0.0000
203     CA203  -615.2646  -185.9885   409.6002 CA   1 <0> 0.0000
204     CA204  -607.3134  -179.8762   423.8560 CA   1 <0> 0.0000
205     CA205  -604.5814  -172.0605   437.5163 CA   1 <0> 0.0000
206     CA206  -602.0131  -168.0837   452.6037 CA   1 <0> 0.0000
207     CA207  -600.6191  -161.8193   465.4345 CA   1 <0> 0.0000
208     CA208  -604.1938  -152.3213   475.8888 CA   1 <0> 0.0000
209     CA209  -605.8603  -144.0394   489.1334 CA   1 <0> 0.0000
210     CA210  -606.5443  -130.8542   499.2416 CA   1 <0> 0.0000
211     CA211  -609.0402  -124.0947   513.4139 CA   1 <0> 0.0000
212     CA212  -611.5379  -117.5427   528.4842 CA   1 <0> 0.0000
213     CA213  -615.2419  -111.9742   542.7171 CA   1 <0> 0.0000
214     CA214  -615.5471  -106.9996   557.6581 CA   1 <0> 0.0000
215     CA215  -622.8562   -99.1687   569.8775 CA   1 <0> 0.0000
216     CA216  -629.0180   -93.9477   582.7331 CA   1 <0> 0.0000
217     CA217  -633.9214   -83.5092   594.8695 CA   1 <0> 0.0000
218     CA218  -635.7480   -71.4063   607.8884 CA   1 <0> 0.0000
219     CA219  -636.9504   -60.9454   618.1819 CA   1 <0> 0.0000
220     CA220  -643.1035   -51.7176   630.6109 CA   1 <0> 0.0000
221     CA221  -649.3086   -39.2236   636.8257 CA   1 <0> 0.0000
222     CA222  -653.5608   -25.7438   643.6095 CA   1 <0> 0.0000
223     CA223  -659.0909   -10.9176   644.2491 CA   1 <0> 0.0000
224     CA224  -666.8889     3.4724   645.0507 CA   1 <0> 0.0000
225     CA225  -674.7545    18.7549   647.0390 CA   1 <0> 0.0000
226     CA226  -682.2181    32.0733   645.9059 CA   1 <0> 0.0000
227     CA227  -687.1874    48.2471   646.0429 CA   1 <0> 0.0000
228     CA228  -692.6442    62.8920   640.2204 CA   1 <0> 0.0000
229     CA229  -697.7102    77.6795   634.5255 CA   1 <0> 0.0000
230     CA230  -699.8119    87.1434   621.8678 CA   1 <0> 0.0000
231     CA231  -708.4040    93.5722   610.7770 CA   1 <0> 0.0000
232     CA232  -716.4372   102.1678   598.5527 CA   1 <0> 0.0000
233     CA233  -729.9059   107.5391   592.4121 CA   1 <0> 0.0000
234     CA234  -740.9347   113.0317   585.1941 CA   1 <0> 0.0000
235     CA235  -744.1842   111.8640   569.4360 CA   1 <0> 0.0000
236     CA236  -750.0797   114.9190   553.6704 CA   1 <0> 0.0000
237     CA237  -753.4582   115.8379   538.8166 CA   1 <0> 0.0000
238     CA238  -763.3319   119.3471   526.8835 CA   1 <0> 0.0000
239     CA239  -772.1125   121.3500   514.0754 CA   1 <0> 0.0000
240     CA240  -779.9060   125.7574   500.4068 CA   1 <0> 0.0000
241     CA241  -784.9563   127.0994   484.6691 CA   1 <0> 0.0000
242     CA242  -792.3911   129.6910   469.0953 CA   1 <0> 0.0000
243     CA243  -796.9394   139.2499   455.9963 CA   1 <0> 0.0000
244     CA244  -802.9195   143.9944   443.7518 CA   1 <0> 0.0000
245     CA245  -811.9269   146.5156   428.9931 CA   1 <0> 0.0000
246     CA246  -817.0246   159.7748   419.9123 CA   1 <0> 0.0000
247     CA247  -824.4323   171.8404   412.9301 CA   1 <0> 0.0000
248     CA248  -824.6131   186.1805   407.8658 CA   1 <0> 0.0000
249     CA249  -827.6772   197.0565   396.4275 CA   1 <0> 0.0000
250     CA250  -829.4804   212.1340   392.8232 CA   1 <0> 0.0000
251     CA251  -829.4733   226.1027   385.8958 CA   1 <0> 0.0000
252     CA252  -831.7801   241.3347   383.1512 CA   1 <0> 0.0000
253     CA253  -837.9709   255.6498   378.4850 CA   1 <0> 0.0000
254     CA254  -844.6559   268.2537   372.0804 CA   1 <0> 0.0000
255     CA255  -849.9822   278.5691   362.3337 CA   1 <0> 0.0000
256     CA256  -860.0469   288.0406   352.1311 CA   1 <0> 0.0000
257     CA257  -864.5606   300.8703   343.3861 CA   1 <0> 0.0000
258     CA258  -866.6631   315.8314   340.4183 CA   1 <0> 0.0000
259     CA259  -873.9699   330.3190   340.8538 CA   1 <0> 0.0000
260     CA260  -876.2794   345.8093   339.8077 CA   1 <0> 0.0000
261     CA261  -883.4627   357.6911   332.1100 CA   1 <0> 0.0000
262     CA262  -888.0725   366.6491   320.0069 CA   1 <0> 0.0000
263     CA263  -891.4187   363.6350   302.3733 CA   1 <0> 0.0000
264     CA264  -898.1985   361.9991   285.6089 CA   1 <0> 0.0000
265     CA265  -902.1569   357.2607   270.5476 CA   1 <0> 0.0000
266     CA266  -912.7109   351.5151   257.3702 CA   1 <0> 0.0000
267     CA267  -913.7681   349.5595   240.5815 CA   1 <0> 0.0000
268     CA268  -921.2894   343.3714   228.5773 CA   1 <0> 0.0000
269     CA269  -925.4032   335.8791   214.9469 CA   1 <0> 0.0000
270     CA270  -933.9328   324.9205   204.4577 CA   1 <0> 0.0000
271     CA271  -945.8995   316.9123   194.3513 CA   1 <0> 0.0000
272     CA272  -953.7626   307.6454   184.4679 CA   1 <0> 0.0000
273     CA273  -966.7243   302.0461   179.7348 CA   1 <0> 0.0000
274     CA274  -977.6732   292.3472   173.4672 CA   1 <0> 0.0000
275     CA275  -990.9090   282.4103   170.0617 CA   1 <0> 0.0000
276     CA276 -1003.3023   275.0810   162.2345 CA   1 <0> 0.0000
277     CA277 -1013.4354   263.5831   158.2326 CA   1 <0> 0.0000
278     CA278 -1024.3564   254.0314   151.0873 CA   1 <0> 0.0000
279     CA279 -1033.3908   242.5023   143.2041 CA   1 <0> 0.0000
280     CA280 -1042.7537   234.5803   132.3764 CA   1 <0> 0.0000
281     CA281 -1047.0889   233.1189   117.1526 CA   1 <0> 0.0000
282     CA282 -1057.0812   229.0093   106.1541 CA   1 <0> 0.0000
283     CA283 -1057.4188   222.0935    93.9862 CA   1 <0> 0.0000
284     CA284 -1054.8737   210.3025    83.2875 CA   1 <0> 0.0000
285     CA285 -1048.4703   208.7455    70.0234 CA   1 <0> 0.0000
286     CA286 -1045.5847   210.1793    55.7063 CA   1 <0> 0.0000
287     CA287 -1049.5489   214.4826    41.9202 CA   1 <0> 0.0000
288     CA288 -1056.7900   216.6887    26.4779 CA   1 <0> 0.0000
289     CA289 -1062.8604   216.4724    12.5339 CA   1 <0> 0.0000
290     CA290 -1067.5285   219.3577    -2.6742 CA   1 <0> 0.0000
291     CA291 -1070.4581   211.4444   -15.6057 CA   1 <0> 0.0000
292     CA292 -1073.4127   206.3426   -31.1669 CA   1 <0> 0.0000
293     CA293 -1075.1774   195.0844   -43.7646 CA   1 <0> 0.0000
294     CA294 -1080.0330   187.0601   -57.2601 CA   1 <0> 0.0000
295     CA295 -1087.4448   182.9565   -70.7065 CA   1 <0> 0.0000
296     CA296 -1097.0400   173.4287   -79.0519 CA   1 <0> 0.0000
297     CA297 -1111.8489   168.6303   -86.7421 CA   1 <0> 0.0000
