@<TRIPOS>MOLECULE
Chromatin_Fragment
 12 11 0 0 0
SMALL
NO_CHARGES

@<TRIPOS>ATOM
      1 C1        0.000   0.000   0.000 C.ar      1 <residue1>       0.000
      2 N1        1.400   0.000   0.000 N.am      1 <residue1>       0.000
      3 C2        2.100   1.200   0.000 C.ar      1 <residue1>       0.000
      4 O1        3.400   1.200   0.000 O.2       1 <residue1>       0.000
      5 P1        4.500   0.000   0.000 P.3       2 <residue2>       0.000
      6 O2        5.900   0.000   0.000 O.3       2 <residue2>       0.000
      7 C3        4.500  -1.200   0.000 C.3       2 <residue2>       0.000
      8 N2        3.000  -1.200   0.000 N.am      1 <residue1>       0.000
      9 H1        1.400  -1.000   0.000 H         1 <residue1>       0.000
     10 H2        0.000   1.000   0.000 H         1 <residue1>       0.000
     11 O3        5.900  -1.200   0.000 O.2       2 <residue2>       0.000
     12 H3        4.500  -2.200   0.000 H         2 <residue2>       0.000

@<TRIPOS>BOND
     1    1    2 1
     2    2    3 1
     3    3    4 2
     4    3    5 1
     5    5    6 1
     6    5    7 1
     7    2    8 1
     8    2    9 1
     9    1   10 1
    10    7   11 2
    11    7   12 1
