@<TRIPOS>MOLECULE
Example_DNA_RNA
12 10 2 0 0
SMALL
NO_CHARGES

@<TRIPOS>ATOM
      1 DA1    0.000   0.000   0.000  Du      1 DA    0.00
      2 DC2    1.600   0.300  -0.200  Du      1 DC    0.00
      3 DG3    3.200  -0.200   0.400  Du      1 DG    0.00
      4 DT4    4.800   0.600  -0.100  Du      1 DT    0.00
      5 DA5    6.400  -0.100   0.300  Du      1 DA    0.00
      6 DC6    8.000   0.400  -0.200  Du      1 DC    0.00
      7 A7     0.000   3.000   0.500  Du      2 A     0.00
      8 U8     1.600   3.300   0.300  Du      2 U     0.00
      9 G9     3.200   2.800   0.900  Du      2 G     0.00
     10 C10    4.800   3.600   0.200  Du      2 C     0.00
     11 A11    6.400   2.900   0.700  Du      2 A     0.00
     12 U12    8.000   3.300   0.100  Du      2 U     0.00

@<TRIPOS>BOND
     1    1    2 1
     2    2    3 1
     3    3    4 1
     4    4    5 1
     5    5    6 1
     6    7    8 1
     7    8    9 1
     8    9   10 1
     9   10   11 1
    10   11   12 1

@<TRIPOS>SUBSTRUCTURE
     1     1     6     1   DA   1 DEFAULT
     2     7    12     2    B   2 DEFAULT
