@<TRIPOS>MOLECULE
Converted_From_XYZ
303 0 0 0 0
SMALL
NO_CHARGES

@<TRIPOS>ATOM
1       CA1      1.0468     0.7791    13.0807 CA   1 <0> 0.0000
2       CA2      2.3685     2.6815    29.5125 CA   1 <0> 0.0000
3       CA3      8.2173     4.5846    44.6671 CA   1 <0> 0.0000
4       CA4     17.6542     8.7661    57.9835 CA   1 <0> 0.0000
5       CA5     31.2835    12.2778    65.3080 CA   1 <0> 0.0000
6       CA6     46.7287    18.2060    65.5737 CA   1 <0> 0.0000
7       CA7     60.9825    22.1806    59.4778 CA   1 <0> 0.0000
8       CA8     71.5349    25.2948    47.3464 CA   1 <0> 0.0000
9       CA9     77.9684    26.0254    32.4728 CA   1 <0> 0.0000
10      CA10    79.8734    23.3274    16.2052 CA   1 <0> 0.0000
11      CA11    76.1799    18.0358     1.3289 CA   1 <0> 0.0000
12      CA12    67.6085     9.5297   -10.5182 CA   1 <0> 0.0000
13      CA13    54.6317     1.0500   -16.0562 CA   1 <0> 0.0000
14      CA14    40.0344    -7.5894   -15.5945 CA   1 <0> 0.0000
15      CA15    26.3079   -13.3549    -7.9504 CA   1 <0> 0.0000
16      CA16    15.3410   -18.7887     3.8548 CA   1 <0> 0.0000
17      CA17    10.2301   -20.7265    19.7683 CA   1 <0> 0.0000
18      CA18    10.6403   -21.7490    36.7858 CA   1 <0> 0.0000
19      CA19    18.3135   -19.6743    51.7641 CA   1 <0> 0.0000
20      CA20    30.4855   -15.4227    62.2430 CA   1 <0> 0.0000
21      CA21    45.6077    -9.8469    67.2978 CA   1 <0> 0.0000
22      CA22    60.7266    -3.9523    66.1938 CA   1 <0> 0.0000
23      CA23    75.0285     1.3364    59.6688 CA   1 <0> 0.0000
24      CA24    85.6045     4.2183    47.4029 CA   1 <0> 0.0000
25      CA25    91.2084     4.3137    31.9123 CA   1 <0> 0.0000
26      CA26    89.0054     0.3398    15.9394 CA   1 <0> 0.0000
27      CA27    82.7375    -4.7641     1.5744 CA   1 <0> 0.0000
28      CA28    72.2544   -11.6245    -9.0445 CA   1 <0> 0.0000
29      CA29    60.5764   -16.7589   -19.1196 CA   1 <0> 0.0000
30      O30     47.9702     0.7393    27.8339 O    1 <0> 0.0000
31      CA31    45.4253   -21.0631   -25.0322 CA   1 <0> 0.0000
32      CA32    33.9879   -26.0021   -33.0206 CA   1 <0> 0.0000
33      CA33    21.9496   -35.6674   -37.1062 CA   1 <0> 0.0000
34      CA34    10.6019   -42.6988   -44.8305 CA   1 <0> 0.0000
35      CA35     9.1395   -50.1359   -57.2081 CA   1 <0> 0.0000
36      CA36     2.6087   -57.2223   -70.1760 CA   1 <0> 0.0000
37      CA37    -0.6909   -59.8981   -84.9347 CA   1 <0> 0.0000
38      CA38    -2.7630   -70.9283   -96.8081 CA   1 <0> 0.0000
39      CA39    -3.8643   -78.2450  -111.8889 CA   1 <0> 0.0000
40      CA40    -8.4636   -89.1345  -122.1299 CA   1 <0> 0.0000
41      CA41   -18.4104   -98.1727  -129.8585 CA   1 <0> 0.0000
42      CA42   -29.1619  -108.2327  -135.6363 CA   1 <0> 0.0000
43      CA43   -43.4645  -113.6291  -138.8206 CA   1 <0> 0.0000
44      CA44   -54.7114  -123.3092  -140.7489 CA   1 <0> 0.0000
45      CA45   -67.7721  -133.0240  -143.3410 CA   1 <0> 0.0000
46      CA46   -82.1114  -143.1509  -143.1481 CA   1 <0> 0.0000
47      CA47   -97.1967  -147.8772  -139.6302 CA   1 <0> 0.0000
48      CA48  -114.0937  -147.6917  -143.9302 CA   1 <0> 0.0000
49      CA49  -129.2066  -150.4952  -149.7116 CA   1 <0> 0.0000
50      CA50  -143.2513  -154.2676  -157.4327 CA   1 <0> 0.0000
51      CA51  -155.3824  -163.1945  -164.6569 CA   1 <0> 0.0000
52      CA52  -163.8374  -175.1452  -172.5373 CA   1 <0> 0.0000
53      CA53  -164.4756  -191.0232  -177.1806 CA   1 <0> 0.0000
54      CA54  -159.1246  -206.6449  -179.6231 CA   1 <0> 0.0000
55      CA55  -147.5589  -218.2589  -179.0374 CA   1 <0> 0.0000
56      CA56  -133.0000  -225.6727  -176.2289 CA   1 <0> 0.0000
57      CA57  -116.9211  -227.7979  -172.7813 CA   1 <0> 0.0000
58      CA58  -101.1834  -223.5837  -168.8228 CA   1 <0> 0.0000
59      CA59   -88.2440  -213.6825  -164.9064 CA   1 <0> 0.0000
60      CA60   -81.1003  -198.3575  -162.4642 CA   1 <0> 0.0000
61      CA61   -80.1821  -182.0759  -160.2746 CA   1 <0> 0.0000
62      CA62   -86.6280  -166.3059  -160.8331 CA   1 <0> 0.0000
63      CA63   -96.9973  -153.4280  -162.0358 CA   1 <0> 0.0000
64      CA64  -111.4281  -145.9092  -167.2111 CA   1 <0> 0.0000
65      CA65  -126.6205  -144.0381  -173.5428 CA   1 <0> 0.0000
66      CA66  -140.1891  -149.0330  -182.5028 CA   1 <0> 0.0000
67      CA67  -149.5743  -159.5909  -190.2765 CA   1 <0> 0.0000
68      CA68  -154.4007  -174.1814  -196.8297 CA   1 <0> 0.0000
69      CA69  -153.7380  -189.8015  -200.9377 CA   1 <0> 0.0000
70      CA70  -147.9063  -205.0300  -202.3487 CA   1 <0> 0.0000
71      CA71  -136.7866  -216.7232  -202.0523 CA   1 <0> 0.0000
72      CA72  -122.0779  -223.3853  -199.2763 CA   1 <0> 0.0000
73      CA73  -106.4942  -222.4026  -196.1912 CA   1 <0> 0.0000
74      CA74   -92.2458  -215.6408  -190.7552 CA   1 <0> 0.0000
75      CA75   -80.9976  -204.8307  -186.3456 CA   1 <0> 0.0000
76      CA76   -73.1657  -191.7389  -179.8781 CA   1 <0> 0.0000
77      O77   -121.8733  -187.4300  -176.6355 O    1 <0> 0.0000
78      CA78   -65.8229  -177.9641  -174.7307 CA   1 <0> 0.0000
79      CA79   -55.7101  -167.1793  -167.7482 CA   1 <0> 0.0000
80      CA80   -41.5839  -161.4868  -172.1311 CA   1 <0> 0.0000
81      CA81   -27.0595  -155.5954  -169.3456 CA   1 <0> 0.0000
82      CA82   -12.3773  -147.7867  -169.0628 CA   1 <0> 0.0000
83      CA83     2.0704  -142.6123  -168.2421 CA   1 <0> 0.0000
84      CA84    17.3148  -140.8982  -171.1791 CA   1 <0> 0.0000
85      CA85    32.1695  -139.3545  -173.1059 CA   1 <0> 0.0000
86      CA86    43.7092  -131.4112  -165.4990 CA   1 <0> 0.0000
87      CA87    52.8891  -127.1267  -153.7202 CA   1 <0> 0.0000
88      CA88    60.7334  -123.6800  -139.7573 CA   1 <0> 0.0000
89      CA89    69.3564  -116.8909  -129.1051 CA   1 <0> 0.0000
90      CA90    82.3235  -116.2858  -119.2373 CA   1 <0> 0.0000
91      CA91    97.0929  -118.8693  -114.6611 CA   1 <0> 0.0000
92      CA92   112.5915  -122.7767  -112.5315 CA   1 <0> 0.0000
93      CA93   128.1070  -122.9777  -114.2136 CA   1 <0> 0.0000
94      CA94   142.9120  -119.6091  -118.3672 CA   1 <0> 0.0000
95      CA95   155.5836  -111.4002  -119.0249 CA   1 <0> 0.0000
96      CA96   170.3591  -105.5728  -124.2396 CA   1 <0> 0.0000
97      CA97   184.1661  -100.2704  -127.3099 CA   1 <0> 0.0000
98      CA98   196.0494  -100.0049  -134.3645 CA   1 <0> 0.0000
99      CA99   209.6894   -97.6409  -142.8656 CA   1 <0> 0.0000
100     CA100   223.9983   -94.4847  -150.6543 CA   1 <0> 0.0000
101     CA101   236.0352   -87.2533  -159.0395 CA   1 <0> 0.0000
102     CA102   246.6705   -75.9811  -165.6496 CA   1 <0> 0.0000
103     CA103   250.8566   -61.5458  -170.7327 CA   1 <0> 0.0000
104     CA104   249.8100   -45.0336  -170.5938 CA   1 <0> 0.0000
105     CA105   242.8219   -30.8350  -168.2076 CA   1 <0> 0.0000
106     CA106   231.3556   -20.8192  -162.1719 CA   1 <0> 0.0000
107     CA107   217.5490   -15.7109  -155.3580 CA   1 <0> 0.0000
108     CA108   202.1387   -16.1879  -149.2067 CA   1 <0> 0.0000
109     CA109   188.1397   -22.7106  -144.2641 CA   1 <0> 0.0000
110     CA110   176.4338   -34.7326  -142.1152 CA   1 <0> 0.0000
111     CA111   171.1911   -50.3367  -142.1131 CA   1 <0> 0.0000
112     CA112   171.3231   -67.0521  -145.0307 CA   1 <0> 0.0000
113     CA113   178.6093   -81.3364  -149.8223 CA   1 <0> 0.0000
114     CA114   188.8025   -92.6457  -157.3958 CA   1 <0> 0.0000
115     CA115   202.5499   -96.9214  -166.1048 CA   1 <0> 0.0000
116     CA116   216.1911   -95.6810  -176.2627 CA   1 <0> 0.0000
117     CA117   227.6776   -86.7168  -184.9366 CA   1 <0> 0.0000
118     CA118   235.2449   -73.1079  -190.7312 CA   1 <0> 0.0000
119     CA119   238.1229   -56.6752  -193.3772 CA   1 <0> 0.0000
120     CA120   236.0009   -40.5772  -192.4288 CA   1 <0> 0.0000
121     CA121   229.2698   -25.8630  -188.7851 CA   1 <0> 0.0000
122     CA122   217.5736   -15.9242  -182.8666 CA   1 <0> 0.0000
123     CA123   203.1671   -11.8685  -175.9835 CA   1 <0> 0.0000
124     CA124   188.4850   -16.5952  -169.8295 CA   1 <0> 0.0000
125     CA125   175.6882   -25.3794  -164.2825 CA   1 <0> 0.0000
126     CA126   166.3059   -38.4416  -160.9548 CA   1 <0> 0.0000
127     CA127   158.5227   -51.9035  -156.2177 CA   1 <0> 0.0000
128     O128   209.5396   -53.3560  -164.2735 O    1 <0> 0.0000
129     CA129   152.9470   -65.8912  -153.1853 CA   1 <0> 0.0000
130     CA130   142.2853   -76.4792  -146.1269 CA   1 <0> 0.0000
131     CA131   129.9765   -85.3867  -140.5535 CA   1 <0> 0.0000
132     CA132   121.2380   -95.8952  -133.4811 CA   1 <0> 0.0000
133     CA133   110.3563  -105.8129  -126.4954 CA   1 <0> 0.0000
134     CA134   100.6144  -117.7966  -128.1817 CA   1 <0> 0.0000
135     CA135    85.3884  -123.7401  -131.4592 CA   1 <0> 0.0000
136     CA136    72.1884  -133.1972  -135.6783 CA   1 <0> 0.0000
137     CA137    61.2227  -144.6752  -137.3079 CA   1 <0> 0.0000
138     CA138    55.0370  -157.1646  -144.6767 CA   1 <0> 0.0000
139     CA139    51.5730  -170.3328  -153.5863 CA   1 <0> 0.0000
140     CA140    45.2618  -180.4872  -165.2481 CA   1 <0> 0.0000
141     CA141    36.6258  -188.8402  -175.1844 CA   1 <0> 0.0000
142     CA142    28.9953  -194.8446  -188.2874 CA   1 <0> 0.0000
143     CA143    26.3701  -198.2561  -203.7410 CA   1 <0> 0.0000
144     CA144    23.8795  -202.9652  -219.5030 CA   1 <0> 0.0000
145     CA145    20.0465  -203.1180  -234.0807 CA   1 <0> 0.0000
146     CA146    19.2834  -209.1224  -247.1734 CA   1 <0> 0.0000
147     CA147    22.4328  -214.7862  -262.6361 CA   1 <0> 0.0000
148     CA148    25.7361  -219.2451  -277.5358 CA   1 <0> 0.0000
149     CA149    22.2078  -223.0350  -293.6351 CA   1 <0> 0.0000
150     CA150    23.5616  -225.4089  -310.9449 CA   1 <0> 0.0000
151     CA151    25.5882  -230.0144  -326.3756 CA   1 <0> 0.0000
152     CA152    31.3634  -231.8236  -341.8834 CA   1 <0> 0.0000
153     CA153    42.5119  -234.6833  -351.5798 CA   1 <0> 0.0000
154     CA154    53.2689  -232.2500  -363.6289 CA   1 <0> 0.0000
155     CA155    64.0208  -229.0909  -375.0510 CA   1 <0> 0.0000
156     CA156    73.8945  -226.0799  -387.8232 CA   1 <0> 0.0000
157     CA157    83.6851  -225.4421  -401.0458 CA   1 <0> 0.0000
158     CA158    88.9799  -226.7189  -416.8375 CA   1 <0> 0.0000
159     CA159    90.7690  -231.2802  -432.7246 CA   1 <0> 0.0000
160     CA160    84.0135  -238.5151  -445.9948 CA   1 <0> 0.0000
161     CA161    72.8721  -247.2241  -454.8638 CA   1 <0> 0.0000
162     CA162    59.0526  -255.9544  -456.2042 CA   1 <0> 0.0000
163     CA163    44.9022  -263.5301  -452.0582 CA   1 <0> 0.0000
164     CA164    32.7966  -270.1400  -442.8551 CA   1 <0> 0.0000
165     CA165    24.4770  -274.6061  -429.0008 CA   1 <0> 0.0000
166     CA166    21.2091  -276.1776  -412.6407 CA   1 <0> 0.0000
167     CA167    25.2923  -274.4140  -396.1461 CA   1 <0> 0.0000
168     CA168    33.5314  -269.1943  -382.8948 CA   1 <0> 0.0000
169     CA169    47.0666  -262.2435  -375.2112 CA   1 <0> 0.0000
170     CA170    61.3523  -254.3553  -372.2951 CA   1 <0> 0.0000
171     CA171    76.8376  -248.7146  -376.7620 CA   1 <0> 0.0000
172     CA172    89.9336  -244.9577  -386.1844 CA   1 <0> 0.0000
173     CA173    99.4144  -245.8697  -400.2777 CA   1 <0> 0.0000
174     CA174   102.5090  -249.4941  -415.6812 CA   1 <0> 0.0000
175     CA175    99.9303  -255.6361  -431.0026 CA   1 <0> 0.0000
176     CA176    92.3136  -263.0960  -443.1534 CA   1 <0> 0.0000
177     CA177    80.5645  -271.1496  -451.2157 CA   1 <0> 0.0000
178     CA178    67.1057  -279.8850  -452.9544 CA   1 <0> 0.0000
179     CA179    53.3523  -287.3855  -448.1564 CA   1 <0> 0.0000
180     CA180    43.6307  -293.2535  -437.0033 CA   1 <0> 0.0000
181     CA181    36.8560  -295.0982  -421.8709 CA   1 <0> 0.0000
182     CA182    34.7967  -295.1237  -405.7904 CA   1 <0> 0.0000
183     CA183    34.8509  -291.0693  -389.7242 CA   1 <0> 0.0000
184     O184    62.4622  -260.6358  -416.4248 O    1 <0> 0.0000
185     CA185    38.3119  -287.8265  -374.3262 CA   1 <0> 0.0000
186     CA186    42.1547  -288.2845  -358.5131 CA   1 <0> 0.0000
187     CA187    43.7364  -291.7501  -342.5306 CA   1 <0> 0.0000
188     CA188    47.3579  -298.7892  -329.2527 CA   1 <0> 0.0000
189     CA189    49.4937  -302.2471  -312.4567 CA   1 <0> 0.0000
190     CA190    43.2624  -303.2266  -296.0961 CA   1 <0> 0.0000
191     CA191    40.9114  -307.0072  -278.5224 CA   1 <0> 0.0000
192     CA192    34.1805  -302.7244  -265.7223 CA   1 <0> 0.0000
193     CA193    31.5892  -303.3446  -251.4384 CA   1 <0> 0.0000
194     CA194    22.8194  -302.2308  -238.0058 CA   1 <0> 0.0000
195     CA195    17.5992  -296.0170  -223.3216 CA   1 <0> 0.0000
196     CA196    16.9775  -289.6727  -209.8303 CA   1 <0> 0.0000
197     CA197    15.5256  -281.8472  -196.6526 CA   1 <0> 0.0000
198     CA198     7.1155  -279.0786  -184.3853 CA   1 <0> 0.0000
199     CA199    -0.7793  -272.7649  -172.0835 CA   1 <0> 0.0000
200     CA200   -11.1323  -265.8816  -161.2664 CA   1 <0> 0.0000
201     CA201   -19.9464  -257.8050  -152.6851 CA   1 <0> 0.0000
202     CA202   -32.2069  -261.3354  -142.9629 CA   1 <0> 0.0000
203     CA203   -41.3167  -268.2292  -131.1414 CA   1 <0> 0.0000
204     CA204   -49.4316  -276.5290  -121.3768 CA   1 <0> 0.0000
205     CA205   -61.3772  -285.8375  -115.9510 CA   1 <0> 0.0000
206     CA206   -72.0008  -295.1384  -106.3863 CA   1 <0> 0.0000
207     CA207   -78.7710  -306.4247   -98.4617 CA   1 <0> 0.0000
208     CA208   -80.9082  -314.5121   -82.9330 CA   1 <0> 0.0000
209     CA209   -87.4944  -325.4215   -72.5357 CA   1 <0> 0.0000
210     CA210   -99.3251  -335.2423   -65.5568 CA   1 <0> 0.0000
211     CA211  -110.4227  -345.6052   -66.8947 CA   1 <0> 0.0000
212     CA212  -122.2266  -354.8970   -69.9025 CA   1 <0> 0.0000
213     CA213  -136.0608  -361.2414   -68.0692 CA   1 <0> 0.0000
214     CA214  -150.4189  -364.3633   -72.7643 CA   1 <0> 0.0000
215     CA215  -165.5360  -369.6647   -76.3768 CA   1 <0> 0.0000
216     CA216  -179.6153  -377.0358   -80.6830 CA   1 <0> 0.0000
217     CA217  -192.2545  -387.9530   -81.0105 CA   1 <0> 0.0000
218     CA218  -201.4775  -401.7024   -79.4951 CA   1 <0> 0.0000
219     CA219  -203.3589  -416.5045   -72.3233 CA   1 <0> 0.0000
220     CA220  -199.3211  -429.8964   -63.2133 CA   1 <0> 0.0000
221     CA221  -188.8374  -438.5660   -54.0524 CA   1 <0> 0.0000
222     CA222  -175.0740  -442.7732   -45.8255 CA   1 <0> 0.0000
223     CA223  -159.3546  -442.7201   -40.5502 CA   1 <0> 0.0000
224     CA224  -143.4366  -437.6371   -39.1769 CA   1 <0> 0.0000
225     CA225  -129.8069  -428.2699   -41.8760 CA   1 <0> 0.0000
226     CA226  -121.4293  -415.6468   -49.7708 CA   1 <0> 0.0000
227     CA227  -119.1593  -402.2154   -58.9997 CA   1 <0> 0.0000
228     CA228  -124.1830  -390.6913   -70.5110 CA   1 <0> 0.0000
229     CA229  -133.3462  -381.5596   -80.8770 CA   1 <0> 0.0000
230     CA230  -146.9008  -378.8779   -90.9092 CA   1 <0> 0.0000
231     CA231  -161.6721  -381.1035   -98.0686 CA   1 <0> 0.0000
232     CA232  -175.3464  -390.2320  -102.4298 CA   1 <0> 0.0000
233     CA233  -185.3772  -402.8425  -101.8454 CA   1 <0> 0.0000
234     CA234  -191.2582  -417.8006   -97.2860 CA   1 <0> 0.0000
235     CA235  -191.8380  -432.1089   -89.7865 CA   1 <0> 0.0000
236     CA236  -187.3187  -444.5361   -80.1406 CA   1 <0> 0.0000
237     CA237  -177.2772  -453.4397   -71.1761 CA   1 <0> 0.0000
238     CA238  -163.2980  -457.1217   -63.4650 CA   1 <0> 0.0000
239     CA239  -147.7891  -455.0018   -60.5814 CA   1 <0> 0.0000
240     CA240  -133.1764  -446.9795   -59.9483 CA   1 <0> 0.0000
241     CA241  -121.1662  -436.5355   -63.0308 CA   1 <0> 0.0000
242     CA242  -112.4209  -422.8715   -66.4038 CA   1 <0> 0.0000
243     O243  -160.6418  -415.3650   -70.8650 O    1 <0> 0.0000
244     CA244  -103.8074  -409.7175   -70.2966 CA   1 <0> 0.0000
245     CA245  -104.5808  -394.7319   -74.0302 CA   1 <0> 0.0000
246     CA246   -97.8599  -380.5494   -78.8600 CA   1 <0> 0.0000
247     CA247   -84.2226  -371.4535   -80.0684 CA   1 <0> 0.0000
248     CA248   -68.7849  -368.3854   -82.5408 CA   1 <0> 0.0000
249     CA249   -54.2946  -374.8337   -85.7239 CA   1 <0> 0.0000
250     CA250   -39.9966  -380.7065   -81.8545 CA   1 <0> 0.0000
251     CA251   -24.9923  -385.0705   -76.9252 CA   1 <0> 0.0000
252     CA252   -11.1660  -384.2713   -68.5304 CA   1 <0> 0.0000
253     CA253    -0.2859  -387.5743   -58.3934 CA   1 <0> 0.0000
254     CA254    12.7889  -385.9112   -52.2415 CA   1 <0> 0.0000
255     CA255    26.8831  -384.9328   -54.6947 CA   1 <0> 0.0000
256     CA256    38.9404  -377.9467   -59.3629 CA   1 <0> 0.0000
257     CA257    51.7529  -368.7425   -64.5643 CA   1 <0> 0.0000
258     CA258    65.4019  -364.5214   -72.0864 CA   1 <0> 0.0000
259     CA259    76.9768  -355.6527   -77.2040 CA   1 <0> 0.0000
260     CA260    86.7309  -348.7461   -88.0915 CA   1 <0> 0.0000
261     CA261    93.7371  -337.1847   -95.6627 CA   1 <0> 0.0000
262     CA262   101.3305  -326.1247  -102.3879 CA   1 <0> 0.0000
263     CA263   108.2863  -318.9284  -115.7712 CA   1 <0> 0.0000
264     CA264   115.6509  -309.8003  -127.2658 CA   1 <0> 0.0000
265     CA265   121.8042  -298.7897  -137.8490 CA   1 <0> 0.0000
266     CA266   129.9621  -285.4934  -143.8240 CA   1 <0> 0.0000
267     CA267   137.2163  -270.6125  -145.3538 CA   1 <0> 0.0000
268     CA268   143.8003  -257.4668  -137.7433 CA   1 <0> 0.0000
269     CA269   147.8904  -247.3624  -125.1018 CA   1 <0> 0.0000
270     CA270   147.7324  -243.2088  -109.2363 CA   1 <0> 0.0000
271     CA271   144.6994  -243.8615   -92.9516 CA   1 <0> 0.0000
272     CA272   138.1675  -248.4374   -78.4146 CA   1 <0> 0.0000
273     CA273   128.5988  -257.0947   -67.7096 CA   1 <0> 0.0000
274     CA274   117.5212  -268.5360   -62.4955 CA   1 <0> 0.0000
275     CA275   106.0692  -280.9004   -65.2931 CA   1 <0> 0.0000
276     CA276    97.6901  -292.4191   -73.5293 CA   1 <0> 0.0000
277     CA277    92.4625  -300.0491   -87.8474 CA   1 <0> 0.0000
278     CA278    90.8428  -304.7004  -103.6762 CA   1 <0> 0.0000
279     CA279    92.3880  -302.2825  -120.5086 CA   1 <0> 0.0000
280     CA280    96.8801  -295.4720  -134.9252 CA   1 <0> 0.0000
281     CA281   102.7204  -282.8619  -144.7341 CA   1 <0> 0.0000
282     CA282   109.8195  -268.7066  -147.7691 CA   1 <0> 0.0000
283     CA283   117.1176  -254.0110  -144.6234 CA   1 <0> 0.0000
284     CA284   123.0799  -241.6902  -136.0238 CA   1 <0> 0.0000
285     CA285   127.2505  -232.7192  -122.9842 CA   1 <0> 0.0000
286     CA286   127.2401  -228.2054  -107.4892 CA   1 <0> 0.0000
287     CA287   123.6793  -229.3063   -91.5348 CA   1 <0> 0.0000
288     CA288   115.5059  -235.3396   -79.2820 CA   1 <0> 0.0000
289     CA289   106.2580  -246.3690   -70.8490 CA   1 <0> 0.0000
290     CA290    95.9744  -258.4039   -67.3514 CA   1 <0> 0.0000
291     CA291    87.6522  -272.7323   -67.3185 CA   1 <0> 0.0000
292     O292   116.4443  -268.3225  -106.7277 O    1 <0> 0.0000
293     CA293    79.7416  -286.5219   -67.9699 CA   1 <0> 0.0000
294     CA294    83.7085  -303.1413   -66.3083 CA   1 <0> 0.0000
295     CA295    80.8783  -318.1587   -61.3883 CA   1 <0> 0.0000
296     CA296    86.1834  -333.4785   -61.5168 CA   1 <0> 0.0000
297     CA297    93.8155  -346.1642   -63.1567 CA   1 <0> 0.0000
298     CA298   101.6126  -355.3220   -72.5522 CA   1 <0> 0.0000
299     CA299   112.9533  -365.2731   -77.4030 CA   1 <0> 0.0000
300     CA300   126.5310  -373.1266   -81.4441 CA   1 <0> 0.0000
301     CA301   140.5525  -375.9824   -90.1293 CA   1 <0> 0.0000
302     CA302   155.0046  -385.5957   -90.4938 CA   1 <0> 0.0000
303     CA303   167.9710  -394.0295   -92.9970 CA   1 <0> 0.0000
