@<TRIPOS>MOLECULE
COMMENT  TcB parT2xyz Temp(K): 298.000000
 297 0 0 0 0
SMALL
GASTEIGER

@<TRIPOS>ATOM
      1 *          -2.2673    0.9987   14.0882 CA      1  UNL1        0.0000
      2 *          -7.1243    2.8232   30.0973 CA      2  UNL2        0.0000
      3 *         -12.5193   -0.4757   44.0636 CA      3  UNL3        0.0000
      4 *         -22.6867   -2.3481   55.1457 CA      4  UNL4        0.0000
      5 *         -32.2039    3.1118   66.7706 CA      5  UNL5        0.0000
      6 *         -39.8652   10.1947   80.7296 CA      6  UNL6        0.0000
      7 *         -43.5961   13.4407   95.9697 CA      7  UNL7        0.0000
      8 *         -39.1376   17.4702  111.4842 CA      8  UNL8        0.0000
      9 *         -38.4567   21.1453  126.3410 CA      9  UNL9        0.0000
     10 *         -40.8709   30.4450  140.1657 CA     10  UNL10       0.0000
     11 *         -43.4292   36.9866  155.0433 CA     11  UNL11       0.0000
     12 *         -38.6465   44.6991  167.6798 CA     12  UNL12       0.0000
     13 *         -34.0572   53.6011  180.2555 CA     13  UNL13       0.0000
     14 *         -30.6840   59.5012  194.2305 CA     14  UNL14       0.0000
     15 *         -30.5641   68.8206  208.0921 CA     15  UNL15       0.0000
     16 *         -33.7373   72.2984  223.4852 CA     16  UNL16       0.0000
     17 *         -38.3950   71.0890  238.4146 CA     17  UNL17       0.0000
     18 *         -47.3123   71.9741  251.9464 CA     18  UNL18       0.0000
     19 *         -53.2702   70.3933  266.3800 CA     19  UNL19       0.0000
     20 *         -59.3084   69.5524  281.0253 CA     20  UNL20       0.0000
     21 *         -73.0861   65.0759  287.1006 CA     21  UNL21       0.0000
     22 *         -88.7424   61.2318  293.1230 CA     22  UNL22       0.0000
     23 *        -100.7918   54.1004  295.3369 CA     23  UNL23       0.0000
     24 *        -112.8044   44.6135  303.0976 CA     24  UNL24       0.0000
     25 *        -128.7502   39.1752  301.5658 CA     25  UNL25       0.0000
     26 *        -140.9194   29.2384  304.9961 CA     26  UNL26       0.0000
     27 *        -155.6860   26.3334  306.5703 CA     27  UNL27       0.0000
     28 *        -167.4681   17.0422  307.4317 CA     28  UNL28       0.0000
     29 *        -181.8000    9.5363  310.9838 CA     29  UNL29       0.0000
     30 *        -194.9121   -0.2033  309.8408 CA     30  UNL30       0.0000
     31 *        -208.4927   -6.4242  309.7586 CA     31  UNL31       0.0000
     32 *        -223.6985   -7.4875  304.5917 CA     32  UNL32       0.0000
     33 *        -239.5326   -9.9250  300.6923 CA     33  UNL33       0.0000
     34 *        -254.8598   -6.3904  296.4543 CA     34  UNL34       0.0000
     35 *        -268.0311   -0.0051  296.7850 CA     35  UNL35       0.0000
     36 *        -281.5037    7.7778  295.2794 CA     36  UNL36       0.0000
     37 *        -297.4154   10.8977  288.2444 CA     37  UNL37       0.0000
     38 *        -311.0894   11.9728  279.6339 CA     38  UNL38       0.0000
     39 *        -325.2550    8.1725  271.6430 CA     39  UNL39       0.0000
     40 *        -339.3173    1.9604  267.4097 CA     40  UNL40       0.0000
     41 *        -350.6058   -3.2969  260.0339 CA     41  UNL41       0.0000
     42 *        -360.9220  -13.6048  254.2981 CA     42  UNL42       0.0000
     43 *        -369.2116  -25.2310  251.9072 CA     43  UNL43       0.0000
     44 *        -377.1227  -38.3064  253.5616 CA     44  UNL44       0.0000
     45 *        -386.5134  -48.9412  254.6401 CA     45  UNL45       0.0000
     46 *        -394.4147  -59.8007  260.8666 CA     46  UNL46       0.0000
     47 *        -405.6814  -69.7188  268.5278 CA     47  UNL47       0.0000
     48 *        -418.8025  -77.7398  273.0743 CA     48  UNL48       0.0000
     49 *        -425.7592  -78.9963  286.9925 CA     49  UNL49       0.0000
     50 *        -430.0485  -80.3519  301.9051 CA     50  UNL50       0.0000
     51 *        -430.8097  -83.3801  317.6547 CA     51  UNL51       0.0000
     52 *        -436.0675  -86.0097  332.3655 CA     52  UNL52       0.0000
     53 *        -444.7128  -92.6801  344.3455 CA     53  UNL53       0.0000
     54 *        -457.5458  -92.5974  352.8152 CA     54  UNL54       0.0000
     55 *        -468.8066  -94.4035  364.7227 CA     55  UNL55       0.0000
     56 *        -475.8566  -96.1331  378.3554 CA     56  UNL56       0.0000
     57 *        -480.0248  -98.0328  393.2039 CA     57  UNL57       0.0000
     58 *        -487.9251 -102.5840  404.4489 CA     58  UNL58       0.0000
     59 *        -497.3731 -110.8950  416.0705 CA     59  UNL59       0.0000
     60 *        -509.9435 -116.3799  425.8730 CA     60  UNL60       0.0000
     61 *        -520.4447 -125.5754  432.8678 CA     61  UNL61       0.0000
     62 *        -525.1791 -138.3598  441.7017 CA     62  UNL62       0.0000
     63 *        -533.8427 -150.3506  449.0836 CA     63  UNL63       0.0000
     64 *        -540.8391 -163.4984  456.2484 CA     64  UNL64       0.0000
     65 *        -550.0250 -169.4760  466.0373 CA     65  UNL65       0.0000
     66 *        -563.0413 -179.7232  471.7838 CA     66  UNL66       0.0000
     67 *        -572.9237 -191.3691  476.6734 CA     67  UNL67       0.0000
     68 *        -583.4277 -196.4706  486.1270 CA     68  UNL68       0.0000
     69 *        -589.3667 -212.4654  486.5575 CA     69  UNL69       0.0000
     70 *        -594.1781 -228.7227  485.2671 CA     70  UNL70       0.0000
     71 *        -598.6034 -243.3537  484.9479 CA     71  UNL71       0.0000
     72 *        -596.2968 -258.1036  487.5732 CA     72  UNL72       0.0000
     73 *        -597.5966 -272.5493  493.3912 CA     73  UNL73       0.0000
     74 *        -595.4615 -288.2120  493.7166 CA     74  UNL74       0.0000
     75 *        -591.9593 -303.5595  499.1256 CA     75  UNL75       0.0000
     76 *        -581.7728 -313.5426  495.1298 CA     76  UNL76       0.0000
     77 *        -576.2557 -326.0136  488.0070 CA     77  UNL77       0.0000
     78 *        -573.1814 -334.6678  476.5624 CA     78  UNL78       0.0000
     79 *        -566.7670 -342.2123  463.6920 CA     79  UNL79       0.0000
     80 *        -563.5361 -346.5090  448.5741 CA     80  UNL80       0.0000
     81 *        -560.2645 -347.4791  433.1295 CA     81  UNL81       0.0000
     82 *        -560.9504 -347.0185  416.4087 CA     82  UNL82       0.0000
     83 *        -562.4269 -350.6070  399.6705 CA     83  UNL83       0.0000
     84 *        -561.4131 -360.2650  386.9223 CA     84  UNL84       0.0000
     85 *        -553.2578 -366.6854  374.5045 CA     85  UNL85       0.0000
     86 *        -550.4036 -378.7426  363.9138 CA     86  UNL86       0.0000
     87 *        -545.9250 -385.8232  349.8579 CA     87  UNL87       0.0000
     88 *        -540.1791 -396.3368  341.7073 CA     88  UNL88       0.0000
     89 *        -542.3720 -411.4320  335.3491 CA     89  UNL89       0.0000
     90 *        -538.0439 -422.9957  330.6076 CA     90  UNL90       0.0000
     91 *        -538.2920 -437.7830  325.0292 CA     91  UNL91       0.0000
     92 *        -533.3535 -448.1554  314.7021 CA     92  UNL92       0.0000
     93 *        -534.0084 -464.8036  311.1501 CA     93  UNL93       0.0000
     94 *        -532.1475 -480.0054  305.8019 CA     94  UNL94       0.0000
     95 *        -529.2757 -493.6621  311.9901 CA     95  UNL95       0.0000
     96 *        -531.3600 -506.7347  320.2693 CA     96  UNL96       0.0000
     97 *        -526.2200 -518.9385  330.2572 CA     97  UNL97       0.0000
     98 *        -526.3412 -530.8130  340.1755 CA     98  UNL98       0.0000
     99 *        -531.4363 -545.1490  346.6089 CA     99  UNL99       0.0000
    100 *        -534.0984 -558.5023  353.1087 CA    100  UNL100      0.0000
    101 *        -536.9884 -572.2930  357.3655 CA    101  UNL101      0.0000
    102 *        -539.6110 -587.1517  358.7249 CA    102  UNL102      0.0000
    103 *        -543.4417 -602.1354  365.1436 CA    103  UNL103      0.0000
    104 *        -544.0934 -616.8607  370.1068 CA    104  UNL104      0.0000
    105 *        -550.9549 -629.6389  379.0229 CA    105  UNL105      0.0000
    106 *        -550.7593 -644.0313  382.2780 CA    106  UNL106      0.0000
    107 *        -550.1764 -657.5481  391.1690 CA    107  UNL107      0.0000
    108 *        -553.9325 -670.0086  398.2941 CA    108  UNL108      0.0000
    109 *        -557.7668 -685.8751  403.3235 CA    109  UNL109      0.0000
    110 *        -562.7273 -698.8256  411.6706 CA    110  UNL110      0.0000
    111 *        -564.3626 -710.2102  423.6682 CA    111  UNL111      0.0000
    112 *        -566.1573 -723.0458  432.6349 CA    112  UNL112      0.0000
    113 *        -570.4893 -734.0711  443.5746 CA    113  UNL113      0.0000
    114 *        -572.4716 -746.4558  452.6992 CA    114  UNL114      0.0000
    115 *        -580.0987 -756.5859  459.4824 CA    115  UNL115      0.0000
    116 *        -591.3130 -767.2378  464.3757 CA    116  UNL116      0.0000
    117 *        -603.9967 -768.4196  473.4531 CA    117  UNL117      0.0000
    118 *        -618.9795 -773.0087  476.1294 CA    118  UNL118      0.0000
    119 *        -635.7563 -770.6994  475.8807 CA    119  UNL119      0.0000
    120 *        -651.1339 -771.4105  474.3758 CA    120  UNL120      0.0000
    121 *        -666.5301 -770.7951  476.7844 CA    121  UNL121      0.0000
    122 *        -681.1331 -767.0343  471.8929 CA    122  UNL122      0.0000
    123 *        -693.7434 -767.5615  461.3489 CA    123  UNL123      0.0000
    124 *        -701.1510 -774.2114  446.9974 CA    124  UNL124      0.0000
    125 *        -706.7015 -780.4783  433.4984 CA    125  UNL125      0.0000
    126 *        -713.4392 -785.6758  420.8832 CA    126  UNL126      0.0000
    127 *        -721.7937 -790.2512  411.3227 CA    127  UNL127      0.0000
    128 *        -734.7966 -795.0124  404.0001 CA    128  UNL128      0.0000
    129 *        -744.6275 -797.1674  394.1934 CA    129  UNL129      0.0000
    130 *        -752.9298 -801.8295  380.5659 CA    130  UNL130      0.0000
    131 *        -760.0176 -805.0295  365.6715 CA    131  UNL131      0.0000
    132 *        -769.1545 -803.5821  352.9045 CA    132  UNL132      0.0000
    133 *        -780.7072 -799.2027  343.0036 CA    133  UNL133      0.0000
    134 *        -791.6354 -796.0023  330.9150 CA    134  UNL134      0.0000
    135 *        -806.1957 -796.7619  321.9118 CA    135  UNL135      0.0000
    136 *        -819.0635 -794.5267  313.8535 CA    136  UNL136      0.0000
    137 *        -831.8599 -790.8935  305.1905 CA    137  UNL137      0.0000
    138 *        -842.6604 -781.2403  300.0578 CA    138  UNL138      0.0000
    139 *        -852.4320 -774.5719  290.1403 CA    139  UNL139      0.0000
    140 *        -862.7733 -764.5801  282.7863 CA    140  UNL140      0.0000
    141 *        -870.2000 -752.2548  274.5360 CA    141  UNL141      0.0000
    142 *        -880.8700 -744.4053  266.7431 CA    142  UNL142      0.0000
    143 *        -887.1637 -740.1146  253.1032 CA    143  UNL143      0.0000
    144 *        -891.3742 -732.2109  241.6383 CA    144  UNL144      0.0000
    145 *        -891.2049 -721.9145  231.5606 CA    145  UNL145      0.0000
    146 *        -891.0873 -714.3235  218.1646 CA    146  UNL146      0.0000
    147 *        -885.9135 -704.7882  207.6874 CA    147  UNL147      0.0000
    148 *        -880.4512 -695.0167  196.0070 CA    148  UNL148      0.0000
    149 *        -881.0453 -680.6714  187.2077 CA    149  UNL149      0.0000
    150 *        -882.6089 -667.0127  180.0395 CA    150  UNL150      0.0000
    151 *        -890.0092 -653.9492  174.1643 CA    151  UNL151      0.0000
    152 *        -892.8009 -640.5071  166.2117 CA    152  UNL152      0.0000
    153 *        -891.5034 -627.0105  157.9837 CA    153  UNL153      0.0000
    154 *        -891.3102 -617.9845  146.6822 CA    154  UNL154      0.0000
    155 *        -882.4965 -608.6770  137.5583 CA    155  UNL155      0.0000
    156 *        -882.3246 -596.1494  126.9777 CA    156  UNL156      0.0000
    157 *        -879.2620 -581.9822  119.9096 CA    157  UNL157      0.0000
    158 *        -869.2999 -572.5057  112.2223 CA    158  UNL158      0.0000
    159 *        -856.2846 -564.0977  108.8602 CA    159  UNL159      0.0000
    160 *        -846.0074 -550.9420  109.8766 CA    160  UNL160      0.0000
    161 *        -837.5367 -537.9039  116.8333 CA    161  UNL161      0.0000
    162 *        -827.8024 -526.9228  119.4283 CA    162  UNL162      0.0000
    163 *        -815.2081 -516.6693  118.0724 CA    163  UNL163      0.0000
    164 *        -804.2048 -505.7249  121.8826 CA    164  UNL164      0.0000
    165 *        -792.3484 -494.6520  116.7845 CA    165  UNL165      0.0000
    166 *        -787.2596 -478.9092  118.9773 CA    166  UNL166      0.0000
    167 *        -783.7514 -463.7333  121.5071 CA    167  UNL167      0.0000
    168 *        -787.9160 -449.4943  125.1293 CA    168  UNL168      0.0000
    169 *        -786.5396 -432.7835  129.0450 CA    169  UNL169      0.0000
    170 *        -790.5540 -420.5054  136.6142 CA    170  UNL170      0.0000
    171 *        -793.7963 -407.9863  145.2048 CA    171  UNL171      0.0000
    172 *        -802.5579 -394.1798  152.1306 CA    172  UNL172      0.0000
    173 *        -809.5284 -381.5373  159.4435 CA    173  UNL173      0.0000
    174 *        -818.1810 -369.3924  166.2530 CA    174  UNL174      0.0000
    175 *        -828.2604 -359.2039  175.6737 CA    175  UNL175      0.0000
    176 *        -829.4633 -347.4127  185.8580 CA    176  UNL176      0.0000
    177 *        -833.3273 -334.4295  195.7334 CA    177  UNL177      0.0000
    178 *        -834.3406 -328.0622  209.9960 CA    178  UNL178      0.0000
    179 *        -833.8616 -313.7383  217.9105 CA    179  UNL179      0.0000
    180 *        -838.0894 -302.3082  227.3823 CA    180  UNL180      0.0000
    181 *        -834.0952 -289.9242  235.7491 CA    181  UNL181      0.0000
    182 *        -829.2329 -278.1343  246.9775 CA    182  UNL182      0.0000
    183 *        -826.9299 -268.3796  259.6852 CA    183  UNL183      0.0000
    184 *        -823.4830 -258.6199  271.9241 CA    184  UNL184      0.0000
    185 *        -813.7384 -255.7701  283.5027 CA    185  UNL185      0.0000
    186 *        -801.1496 -250.1456  292.5021 CA    186  UNL186      0.0000
    187 *        -796.9335 -246.1978  306.5889 CA    187  UNL187      0.0000
    188 *        -789.5014 -242.0090  321.7524 CA    188  UNL188      0.0000
    189 *        -783.6887 -238.5504  335.3412 CA    189  UNL189      0.0000
    190 *        -772.4467 -241.1960  345.2004 CA    190  UNL190      0.0000
    191 *        -759.2613 -245.1124  349.3742 CA    191  UNL191      0.0000
    192 *        -744.8151 -243.3659  344.8668 CA    192  UNL192      0.0000
    193 *        -728.2156 -244.8050  342.3197 CA    193  UNL193      0.0000
    194 *        -712.8706 -249.8880  336.8700 CA    194  UNL194      0.0000
    195 *        -699.6419 -244.1103  337.0975 CA    195  UNL195      0.0000
    196 *        -689.1090 -234.2281  343.7667 CA    196  UNL196      0.0000
    197 *        -676.5607 -225.8084  350.2462 CA    197  UNL197      0.0000
    198 *        -666.6126 -223.0488  362.3909 CA    198  UNL198      0.0000
    199 *        -658.2813 -218.9153  376.9062 CA    199  UNL199      0.0000
    200 *        -647.2333 -212.8980  385.1315 CA    200  UNL200      0.0000
    201 *        -636.4414 -205.2959  394.8292 CA    201  UNL201      0.0000
    202 *        -624.8619 -196.5287  401.4145 CA    202  UNL202      0.0000
    203 *        -615.2646 -185.9885  409.6002 CA    203  UNL203      0.0000
    204 *        -607.3134 -179.8762  423.8560 CA    204  UNL204      0.0000
    205 *        -604.5814 -172.0605  437.5163 CA    205  UNL205      0.0000
    206 *        -602.0131 -168.0837  452.6037 CA    206  UNL206      0.0000
    207 *        -600.6191 -161.8193  465.4345 CA    207  UNL207      0.0000
    208 *        -604.1938 -152.3213  475.8888 CA    208  UNL208      0.0000
    209 *        -605.8603 -144.0394  489.1334 CA    209  UNL209      0.0000
    210 *        -606.5443 -130.8542  499.2416 CA    210  UNL210      0.0000
    211 *        -609.0402 -124.0947  513.4139 CA    211  UNL211      0.0000
    212 *        -611.5379 -117.5427  528.4842 CA    212  UNL212      0.0000
    213 *        -615.2419 -111.9742  542.7171 CA    213  UNL213      0.0000
    214 *        -615.5471 -106.9996  557.6581 CA    214  UNL214      0.0000
    215 *        -622.8562  -99.1687  569.8775 CA    215  UNL215      0.0000
    216 *        -629.0180  -93.9477  582.7331 CA    216  UNL216      0.0000
    217 *        -633.9214  -83.5092  594.8695 CA    217  UNL217      0.0000
    218 *        -635.7480  -71.4063  607.8884 CA    218  UNL218      0.0000
    219 *        -636.9504  -60.9454  618.1819 CA    219  UNL219      0.0000
    220 *        -643.1035  -51.7176  630.6109 CA    220  UNL220      0.0000
    221 *        -649.3086  -39.2236  636.8257 CA    221  UNL221      0.0000
    222 *        -653.5608  -25.7438  643.6095 CA    222  UNL222      0.0000
    223 *        -659.0909  -10.9176  644.2491 CA    223  UNL223      0.0000
    224 *        -666.8889    3.4724  645.0507 CA    224  UNL224      0.0000
    225 *        -674.7545   18.7549  647.0390 CA    225  UNL225      0.0000
    226 *        -682.2181   32.0733  645.9059 CA    226  UNL226      0.0000
    227 *        -687.1874   48.2471  646.0429 CA    227  UNL227      0.0000
    228 *        -692.6442   62.8920  640.2204 CA    228  UNL228      0.0000
    229 *        -697.7102   77.6795  634.5255 CA    229  UNL229      0.0000
    230 *        -699.8119   87.1434  621.8678 CA    230  UNL230      0.0000
    231 *        -708.4040   93.5722  610.7770 CA    231  UNL231      0.0000
    232 *        -716.4372  102.1678  598.5527 CA    232  UNL232      0.0000
    233 *        -729.9059  107.5391  592.4121 CA    233  UNL233      0.0000
    234 *        -740.9347  113.0317  585.1941 CA    234  UNL234      0.0000
    235 *        -744.1842  111.8640  569.4360 CA    235  UNL235      0.0000
    236 *        -750.0797  114.9190  553.6704 CA    236  UNL236      0.0000
    237 *        -753.4582  115.8379  538.8166 CA    237  UNL237      0.0000
    238 *        -763.3319  119.3471  526.8835 CA    238  UNL238      0.0000
    239 *        -772.1125  121.3500  514.0754 CA    239  UNL239      0.0000
    240 *        -779.9060  125.7574  500.4068 CA    240  UNL240      0.0000
    241 *        -784.9563  127.0994  484.6691 CA    241  UNL241      0.0000
    242 *        -792.3911  129.6910  469.0953 CA    242  UNL242      0.0000
    243 *        -796.9394  139.2499  455.9963 CA    243  UNL243      0.0000
    244 *        -802.9195  143.9944  443.7518 CA    244  UNL244      0.0000
    245 *        -811.9269  146.5156  428.9931 CA    245  UNL245      0.0000
    246 *        -817.0246  159.7748  419.9123 CA    246  UNL246      0.0000
    247 *        -824.4323  171.8404  412.9301 CA    247  UNL247      0.0000
    248 *        -824.6131  186.1805  407.8658 CA    248  UNL248      0.0000
    249 *        -827.6772  197.0565  396.4275 CA    249  UNL249      0.0000
    250 *        -829.4804  212.1340  392.8232 CA    250  UNL250      0.0000
    251 *        -829.4733  226.1027  385.8958 CA    251  UNL251      0.0000
    252 *        -831.7801  241.3347  383.1512 CA    252  UNL252      0.0000
    253 *        -837.9709  255.6498  378.4850 CA    253  UNL253      0.0000
    254 *        -844.6559  268.2537  372.0804 CA    254  UNL254      0.0000
    255 *        -849.9822  278.5691  362.3337 CA    255  UNL255      0.0000
    256 *        -860.0469  288.0406  352.1311 CA    256  UNL256      0.0000
    257 *        -864.5606  300.8703  343.3861 CA    257  UNL257      0.0000
    258 *        -866.6631  315.8314  340.4183 CA    258  UNL258      0.0000
    259 *        -873.9699  330.3190  340.8538 CA    259  UNL259      0.0000
    260 *        -876.2794  345.8093  339.8077 CA    260  UNL260      0.0000
    261 *        -883.4627  357.6911  332.1100 CA    261  UNL261      0.0000
    262 *        -888.0725  366.6491  320.0069 CA    262  UNL262      0.0000
    263 *        -891.4187  363.6350  302.3733 CA    263  UNL263      0.0000
    264 *        -898.1985  361.9991  285.6089 CA    264  UNL264      0.0000
    265 *        -902.1569  357.2607  270.5476 CA    265  UNL265      0.0000
    266 *        -912.7109  351.5151  257.3702 CA    266  UNL266      0.0000
    267 *        -913.7681  349.5595  240.5815 CA    267  UNL267      0.0000
    268 *        -921.2894  343.3714  228.5773 CA    268  UNL268      0.0000
    269 *        -925.4032  335.8791  214.9469 CA    269  UNL269      0.0000
    270 *        -933.9328  324.9205  204.4577 CA    270  UNL270      0.0000
    271 *        -945.8995  316.9123  194.3513 CA    271  UNL271      0.0000
    272 *        -953.7626  307.6454  184.4679 CA    272  UNL272      0.0000
    273 *        -966.7243  302.0461  179.7348 CA    273  UNL273      0.0000
    274 *        -977.6732  292.3472  173.4672 CA    274  UNL274      0.0000
    275 *        -990.9090  282.4103  170.0617 CA    275  UNL275      0.0000
    276 *        -1003.3023  275.0810  162.2345 CA    276  UNL276      0.0000
    277 *        -1013.4354  263.5831  158.2326 CA    277  UNL277      0.0000
    278 *        -1024.3564  254.0314  151.0873 CA    278  UNL278      0.0000
    279 *        -1033.3908  242.5023  143.2041 CA    279  UNL279      0.0000
    280 *        -1042.7537  234.5803  132.3764 CA    280  UNL280      0.0000
    281 *        -1047.0889  233.1189  117.1526 CA    281  UNL281      0.0000
    282 *        -1057.0812  229.0093  106.1541 CA    282  UNL282      0.0000
    283 *        -1057.4188  222.0935   93.9862 CA    283  UNL283      0.0000
    284 *        -1054.8737  210.3025   83.2875 CA    284  UNL284      0.0000
    285 *        -1048.4703  208.7455   70.0234 CA    285  UNL285      0.0000
    286 *        -1045.5847  210.1793   55.7063 CA    286  UNL286      0.0000
    287 *        -1049.5489  214.4826   41.9202 CA    287  UNL287      0.0000
    288 *        -1056.7900  216.6887   26.4779 CA    288  UNL288      0.0000
    289 *        -1062.8604  216.4724   12.5339 CA    289  UNL289      0.0000
    290 *        -1067.5285  219.3577   -2.6742 CA    290  UNL290      0.0000
    291 *        -1070.4581  211.4444  -15.6057 CA    291  UNL291      0.0000
    292 *        -1073.4127  206.3426  -31.1669 CA    292  UNL292      0.0000
    293 *        -1075.1774  195.0844  -43.7646 CA    293  UNL293      0.0000
    294 *        -1080.0330  187.0601  -57.2601 CA    294  UNL294      0.0000
    295 *        -1087.4448  182.9565  -70.7065 CA    295  UNL295      0.0000
    296 *        -1097.0400  173.4287  -79.0519 CA    296  UNL296      0.0000
    297 *        -1111.8489  168.6303  -86.7421 CA    297  UNL297      0.0000
@<TRIPOS>BOND
